<?xml version="1.0" encoding="UTF-8"?>

<routes xmlns:xsi="http://www.w3.org/2001/XMLSchema-instance" xsi:noNamespaceSchemaLocation="http://sumo.dlr.de/xsd/routes_file.xsd">
  <vTypeDistribution id="rp_t_pg_cfm_k_jm_m_lcm_e_kr"
                     vTypes="t_pg t_cfm_k t_jm_m t_lcm_e_kr"/>
  <vTypeDistribution id="rp_t_pg_cfm_k_jm_m_lcm_e_m"
                     vTypes="t_pg t_cfm_k t_jm_m t_lcm_e_m"/>
  <vTypeDistribution id="rp_t_pg_cfm_k_jm_a_lcm_e_kr"
                     vTypes="t_pg t_cfm_k t_jm_a t_lcm_e_kr"/>
  <vTypeDistribution id="rp_t_pg_cfm_k_jm_a_lcm_e_a"
                     vTypes="t_pg t_cfm_k t_jm_a t_lcm_e_a"/>
  <vTypeDistribution id="veh_passenger"
                     vTypes="t_pg t_cfm_k t_jm_a t_lcm_e_a"/>
    <trip id="veh0" type="veh_passenger" depart="0.00" departLane="best" from="23749390" to="-102145981#4"/>
    <trip id="veh1" type="veh_passenger" depart="2.86" departLane="best" from="-559475282#3" to="-44420537#0"/>
    <trip id="veh2" type="veh_passenger" depart="5.73" departLane="best" departSpeed="max" from="28038144" to="28021059#1"/>
    <trip id="veh3" type="veh_passenger" depart="8.59" departLane="best" departSpeed="max" from="83674650" to="-160615651#0"/>
    <trip id="veh4" type="veh_passenger" depart="11.45" departLane="best" from="102145987" to="-102165688#1"/>
    <trip id="veh5" type="veh_passenger" depart="14.31" departLane="best" departSpeed="max" from="-28038007#1" to="136182032#1"/>
    <trip id="veh6" type="veh_passenger" depart="17.18" departLane="best" from="102077272#1" to="-292643664#10.7"/>
    <trip id="veh7" type="veh_passenger" depart="20.04" departLane="best" from="241481354#1" to="206157097"/>
    <trip id="veh8" type="veh_passenger" depart="22.90" departLane="best" departSpeed="max" from="-28038007#1" to="22650417#3"/>
    <trip id="veh9" type="veh_passenger" depart="25.76" departLane="best" from="559475282#2" to="-100132095#1"/>
    <trip id="veh13" type="veh_passenger" depart="37.21" departLane="best" departSpeed="max" from="-109868570#0" to="-174897333#1"/>
    <trip id="veh14" type="veh_passenger" depart="40.08" departLane="best" from="689277286#0" to="22674680#5.197"/>
    <trip id="veh16" type="veh_passenger" depart="45.80" departLane="best" departSpeed="max" from="174897333#0" to="99885096#1"/>
    <trip id="veh17" type="veh_passenger" depart="48.66" departLane="best" from="99885096#3" to="-22492931#1"/>
    <trip id="veh18" type="veh_passenger" depart="51.53" departLane="best" from="620120795#2" to="-23748761#5"/>
    <trip id="veh19" type="veh_passenger" depart="54.39" departLane="best" from="717380720#7" to="22650414#0"/>
    <trip id="veh20" type="veh_passenger" depart="57.25" departLane="best" from="-28027188#2" to="104493121#1"/>
    <trip id="veh21" type="veh_passenger" depart="60.11" departLane="best" departSpeed="max" from="-28038161" to="-83674627"/>
    <trip id="veh22" type="veh_passenger" depart="62.98" departLane="best" from="-104493152#2" to="510762961"/>
    <trip id="veh23" type="veh_passenger" depart="65.84" departLane="best" from="120789326#2" to="-717380723#10"/>
    <trip id="veh24" type="veh_passenger" depart="68.70" departLane="best" departSpeed="max" from="-916754558#1" to="-371925354"/>
    <trip id="veh25" type="veh_passenger" depart="71.57" departLane="best" from="51167745#1" to="88439558#5"/>
    <trip id="veh26" type="veh_passenger" depart="74.43" departLane="best" departSpeed="max" from="241481354#0" to="228894136#1"/>
    <trip id="veh27" type="veh_passenger" depart="77.29" departLane="best" departSpeed="max" from="-28026990#10" to="28030460#3"/>
    <trip id="veh28" type="veh_passenger" depart="80.15" departLane="best" from="-28021111#3.20" to="1002022808#0"/>
    <trip id="veh29" type="veh_passenger" depart="83.02" departLane="best" from="1107701845" to="23903297#0"/>
    <trip id="veh31" type="veh_passenger" depart="88.74" departLane="best" from="-620127952#0" to="-44419254#1"/>
    <trip id="veh32" type="veh_passenger" depart="91.60" departLane="best" from="-292643664#0" to="102173037#4"/>
    <trip id="veh33" type="veh_passenger" depart="94.47" departLane="best" departSpeed="max" from="-83674635" to="-620127949#0"/>
    <trip id="veh34" type="veh_passenger" depart="97.33" departLane="best" from="-28037991#0" to="88439574#1"/>
    <trip id="veh35" type="veh_passenger" depart="100.19" departLane="best" departSpeed="max" from="814259719" to="-83675541"/>
    <trip id="veh36" type="veh_passenger" depart="103.05" departLane="best" from="24526908#2" to="102077265#1"/>
    <trip id="veh37" type="veh_passenger" depart="105.92" departLane="best" departSpeed="max" from="83701769" to="104493131#4"/>
    <trip id="veh38" type="veh_passenger" depart="108.78" departLane="best" from="-447053041#4" to="-570426101#0"/>
    <trip id="veh39" type="veh_passenger" depart="111.64" departLane="best" departSpeed="max" from="22568418" to="620127940#1"/>
    <trip id="veh40" type="veh_passenger" depart="114.50" departLane="best" from="22650414#2.34" to="83674647#0"/>
    <trip id="veh41" type="veh_passenger" depart="117.37" departLane="best" from="100376010" to="44419760#0"/>
    <trip id="veh42" type="veh_passenger" depart="120.23" departLane="best" departSpeed="max" from="E7" to="157986560#2"/>
    <trip id="veh43" type="veh_passenger" depart="123.09" departLane="best" from="-105467444#4" to="-104493121#4"/>
    <trip id="veh44" type="veh_passenger" depart="125.96" departLane="best" departSpeed="max" from="-159663520#1" to="23749115#1"/>
    <trip id="veh45" type="veh_passenger" depart="128.82" departLane="best" from="44420735#1" to="102164664"/>
    <trip id="veh46" type="veh_passenger" depart="131.68" departLane="best" departSpeed="max" from="-104493119#6" to="100376009"/>
    <trip id="veh47" type="veh_passenger" depart="134.54" departLane="best" departSpeed="max" from="E11" to="717380718#2"/>
    <trip id="veh48" type="veh_passenger" depart="137.41" departLane="best" from="100132095#1" to="28027975"/>
    <trip id="veh49" type="veh_passenger" depart="140.27" departLane="best" from="-510762961" to="23903302#0"/>
    <trip id="veh50" type="veh_passenger" depart="143.13" departLane="best" departSpeed="max" from="104493121#0" to="916754558#0"/>
    <trip id="veh51" type="veh_passenger" depart="145.99" departLane="best" from="807805157#2" to="620127938#1"/>
    <trip id="veh53" type="veh_passenger" depart="151.72" departLane="best" from="83701760#3" to="717380722#2"/>
    <trip id="veh54" type="veh_passenger" depart="154.58" departLane="best" from="620127951#0" to="23749390"/>
    <trip id="veh56" type="veh_passenger" depart="160.31" departLane="best" from="356792299#1" to="180170772"/>
    <trip id="veh57" type="veh_passenger" depart="163.17" departLane="best" from="-44419760#0" to="164945661#0"/>
    <trip id="veh58" type="veh_passenger" depart="166.03" departLane="best" from="-100380482#0" to="881567591#0"/>
    <trip id="veh59" type="veh_passenger" depart="168.89" departLane="best" departSpeed="max" from="814259719" to="619881875"/>
    <trip id="veh60" type="veh_passenger" depart="171.76" departLane="best" from="717380723#2" to="-105196530#0"/>
    <trip id="veh62" type="veh_passenger" depart="177.48" departLane="best" from="-105321647#0" to="109868571#1"/>
    <trip id="veh63" type="veh_passenger" depart="180.34" departLane="best" from="-104493122" to="342586722#4"/>
    <trip id="veh64" type="veh_passenger" depart="183.21" departLane="best" departSpeed="max" from="371925354" to="-23748652#1"/>
    <trip id="veh65" type="veh_passenger" depart="186.07" departLane="best" departSpeed="max" from="105196552" to="-221257123#6"/>
    <trip id="veh66" type="veh_passenger" depart="188.93" departLane="best" from="22674672" to="-717380723#1"/>
    <trip id="veh67" type="veh_passenger" depart="191.80" departLane="best" from="102145994#1" to="-391891766#2"/>
    <trip id="veh69" type="veh_passenger" depart="197.52" departLane="best" from="28027978#0" to="83675534#0"/>
    <trip id="veh70" type="veh_passenger" depart="200.38" departLane="best" from="E62" to="24526908#0"/>
    <trip id="veh71" type="veh_passenger" depart="203.25" departLane="best" from="1024920555#0" to="157989544"/>
    <trip id="veh72" type="veh_passenger" depart="206.11" departLane="best" departSpeed="max" from="-180389210" to="-44420537#1"/>
    <trip id="veh73" type="veh_passenger" depart="208.97" departLane="best" from="83675530#2" to="22650417#2"/>
    <trip id="veh74" type="veh_passenger" depart="211.83" departLane="best" departSpeed="max" from="-104493124" to="23749256#1"/>
    <trip id="veh75" type="veh_passenger" depart="214.70" departLane="best" from="-28866079#1" to="-83674767#1"/>
    <trip id="veh76" type="veh_passenger" depart="217.56" departLane="best" from="717380720#2" to="-109868571#0"/>
    <trip id="veh77" type="veh_passenger" depart="220.42" departLane="best" from="-34779710#1" to="28017786#0"/>
    <trip id="veh78" type="veh_passenger" depart="223.28" departLane="best" from="-28037992#4" to="-23748877#3"/>
    <trip id="veh79" type="veh_passenger" depart="226.15" departLane="best" from="88439575#1" to="22650368#1"/>
    <trip id="veh80" type="veh_passenger" depart="229.01" departLane="best" from="105196544#1" to="44419760#6"/>
    <trip id="veh81" type="veh_passenger" depart="231.87" departLane="best" from="546662925#4" to="-28038144"/>
    <trip id="veh82" type="veh_passenger" depart="234.73" departLane="best" from="-120588586#1" to="1024920555#0"/>
    <trip id="veh83" type="veh_passenger" depart="237.60" departLane="best" from="102145994#2" to="-104493152#1"/>
    <trip id="veh84" type="veh_passenger" depart="240.46" departLane="best" from="28037992#5" to="28020753#2"/>
    <trip id="veh85" type="veh_passenger" depart="243.32" departLane="best" from="E35" to="-174897333#3"/>
    <trip id="veh86" type="veh_passenger" depart="246.18" departLane="best" departSpeed="max" from="100965608#0" to="-923412449#0"/>
    <trip id="veh87" type="veh_passenger" depart="249.05" departLane="best" from="717380720#7" to="-570426101#0"/>
    <trip id="veh88" type="veh_passenger" depart="251.91" departLane="best" departSpeed="max" from="-28027286" to="104493119#6"/>
    <trip id="veh89" type="veh_passenger" depart="254.77" departLane="best" from="102145987" to="-717380723#3"/>
    <trip id="veh90" type="veh_passenger" depart="257.64" departLane="best" departSpeed="max" from="-44419760#6" to="85224612#1"/>
    <trip id="veh91" type="veh_passenger" depart="260.50" departLane="best" from="1033371821" to="717380719#0"/>
    <trip id="veh92" type="veh_passenger" depart="263.36" departLane="best" from="220022429#1" to="104493151#0"/>
    <trip id="veh93" type="veh_passenger" depart="266.22" departLane="best" departSpeed="max" from="E9" to="620120797"/>
    <trip id="veh94" type="veh_passenger" depart="269.09" departLane="best" from="-88439558#4" to="881567589"/>
    <trip id="veh95" type="veh_passenger" depart="271.95" departLane="best" departSpeed="max" from="109868571#0" to="391891766#6"/>
    <trip id="veh96" type="veh_passenger" depart="274.81" departLane="best" from="100380474#1" to="-105196530#0"/>
    <trip id="veh97" type="veh_passenger" depart="277.67" departLane="best" from="-99885096#5" to="E28"/>
    <trip id="veh98" type="veh_passenger" depart="280.54" departLane="best" from="-447053041#4" to="44419760#6"/>
    <trip id="veh99" type="veh_passenger" depart="283.40" departLane="best" from="104493121#2" to="102165315"/>
    <trip id="veh101" type="veh_passenger" depart="289.12" departLane="best" departSpeed="max" from="22492931#0" to="28027974#2"/>
   
    <trip id="veh103" type="veh_passenger" depart="294.85" departLane="best" from="-88439558#4" to="22650414#0.19"/>
    <trip id="veh104" type="veh_passenger" depart="297.71" departLane="best" from="174897333#6" to="28038161"/>
    <trip id="veh105" type="veh_passenger" depart="300.57" departLane="best" from="-104493115#2" to="22650414#3"/>
    <trip id="veh106" type="veh_passenger" depart="303.44" departLane="best" from="-120588586#1" to="689277285#2"/>
    <trip id="veh108" type="veh_passenger" depart="309.16" departLane="best" from="104493152#3" to="-28037997#0"/>
    <trip id="veh109" type="veh_passenger" depart="312.03" departLane="best" from="22650422#0" to="28020970#1"/>
    <trip id="veh110" type="veh_passenger" depart="314.89" departLane="best" departSpeed="max" from="-342586722#4" to="-228894136#2"/>
    <trip id="veh111" type="veh_passenger" depart="317.75" departLane="best" from="-83674649" to="-561322877#3"/>
    <trip id="veh112" type="veh_passenger" depart="320.61" departLane="best" from="22650422#0" to="23748877#0"/>
    <trip id="veh113" type="veh_passenger" depart="323.48" departLane="best" departSpeed="max" from="102145981#4" to="22650414#2.34"/>
    <trip id="veh114" type="veh_passenger" depart="326.34" departLane="best" departSpeed="max" from="159663520#0" to="88439558#2"/>
    <trip id="veh115" type="veh_passenger" depart="329.20" departLane="best" from="174897333#5" to="102077265#1"/>
    <trip id="veh116" type="veh_passenger" depart="332.06" departLane="best" departSpeed="max" from="27999818#0" to="-83674767#0"/>
    <trip id="veh117" type="veh_passenger" depart="334.93" departLane="best" departSpeed="max" from="-83674635" to="-292643664#4"/>
    <trip id="veh118" type="veh_passenger" depart="337.79" departLane="best" from="22674672" to="88439557"/>
    <trip id="veh119" type="veh_passenger" depart="340.65" departLane="best" departSpeed="max" from="814259719" to="807804127"/>
    <trip id="veh122" type="veh_passenger" depart="349.24" departLane="best" departSpeed="max" from="23031245" to="E31"/>
    <trip id="veh123" type="veh_passenger" depart="352.10" departLane="best" from="24526883#1" to="-1002022806#1"/>
    <trip id="veh124" type="veh_passenger" depart="354.96" departLane="best" departSpeed="max" from="570426101#0" to="-83674767#0"/>
    <trip id="veh125" type="veh_passenger" depart="357.83" departLane="best" from="254360506#1" to="88439563#1"/>
    <trip id="veh126" type="veh_passenger" depart="360.69" departLane="best" from="-228894135#1" to="-22492931#3"/>
    <trip id="veh127" type="veh_passenger" depart="363.55" departLane="best" departSpeed="max" from="-159534243" to="-22492931#3"/>
    <trip id="veh128" type="veh_passenger" depart="366.41" departLane="best" departSpeed="max" from="-51167747" to="22674680#5.197"/>
    <trip id="veh129" type="veh_passenger" depart="369.28" departLane="best" from="28027978#0" to="-316443377#0"/>
    <trip id="veh130" type="veh_passenger" depart="372.14" departLane="best" from="23749340" to="620127938#3"/>
    <trip id="veh131" type="veh_passenger" depart="375.00" departLane="best" from="1107701841" to="83674767#5"/>
    <trip id="veh132" type="veh_passenger" depart="377.87" departLane="best" from="689277285#0" to="-174897333#0"/>
    <trip id="veh133" type="veh_passenger" depart="380.73" departLane="best" from="102145994#2" to="-717380723#0"/>
    <trip id="veh134" type="veh_passenger" depart="383.59" departLane="best" from="100101558#3" to="371925364"/>
    <trip id="veh135" type="veh_passenger" depart="386.45" departLane="best" from="23749363#3" to="-620127935#1"/>
    <trip id="veh136" type="veh_passenger" depart="389.32" departLane="best" departSpeed="max" from="28531025#0" to="22468241"/>
    <trip id="veh137" type="veh_passenger" depart="392.18" departLane="best" from="102146448#1" to="100376010"/>
    <trip id="veh138" type="veh_passenger" depart="395.04" departLane="best" departSpeed="max" from="-104493133" to="-807805157#2"/>
    <trip id="veh139" type="veh_passenger" depart="397.90" departLane="best" from="620127937" to="22650414#2.34"/>
    <trip id="veh140" type="veh_passenger" depart="400.77" departLane="best" from="-23903302#1" to="-23748652#0"/>
    <trip id="veh141" type="veh_passenger" depart="403.63" departLane="best" from="717380723#3" to="83674647#2"/>
    <trip id="veh142" type="veh_passenger" depart="406.49" departLane="best" departSpeed="max" from="51167745#0" to="717380718#2"/>
    <trip id="veh143" type="veh_passenger" depart="409.35" departLane="best" departSpeed="max" from="83674771" to="-371925354"/>
    <trip id="veh144" type="veh_passenger" depart="412.22" departLane="best" from="-44419760#5" to="-179169979"/>
    <trip id="veh146" type="veh_passenger" depart="417.94" departLane="best" from="-102077254#0" to="-23748877#3"/>
    <trip id="veh147" type="veh_passenger" depart="420.80" departLane="best" from="-24526908#6" to="881567591#0"/>
    <trip id="veh148" type="veh_passenger" depart="423.67" departLane="best" from="717380722#1" to="99885096#8"/>
    <trip id="veh149" type="veh_passenger" depart="426.53" departLane="best" from="561322876#0" to="807805157#0"/>
    <trip id="veh150" type="veh_passenger" depart="429.39" departLane="best" from="102077270#4" to="28037992#4"/>
    <trip id="veh151" type="veh_passenger" depart="432.26" departLane="best" from="-83674770#0" to="881567591#1"/>
    <trip id="veh152" type="veh_passenger" depart="435.12" departLane="best" from="51167746#1" to="-717380719#6"/>
    <trip id="veh153" type="veh_passenger" depart="437.98" departLane="best" from="561322876#0" to="-620127946#2"/>
    <trip id="veh154" type="veh_passenger" depart="440.84" departLane="best" from="44420681#1" to="-206157073#4"/>
    <trip id="veh155" type="veh_passenger" depart="443.71" departLane="best" departSpeed="max" from="760744243" to="717380717#2"/>
    <trip id="veh156" type="veh_passenger" depart="446.57" departLane="best" departSpeed="max" from="-28038008" to="546662925#4"/>
    <trip id="veh157" type="veh_passenger" depart="449.43" departLane="best" from="104493139#0" to="-83674772"/>
    <trip id="veh158" type="veh_passenger" depart="452.29" departLane="best" from="-510762961" to="-44420691#2"/>
    <trip id="veh159" type="veh_passenger" depart="455.16" departLane="best" from="102077270#2" to="-28531025#0"/>
    <trip id="veh160" type="veh_passenger" depart="458.02" departLane="best" departSpeed="max" from="-83674652#1" to="-717380719#6"/>
    <trip id="veh161" type="veh_passenger" depart="460.88" departLane="best" from="99885096#9" to="-717380723#4"/>
    <trip id="veh162" type="veh_passenger" depart="463.74" departLane="best" from="-23903302#1" to="102081695#1"/>
    <trip id="veh163" type="veh_passenger" depart="466.61" departLane="best" departSpeed="max" from="E30" to="-174897333#5"/>
    <trip id="veh164" type="veh_passenger" depart="469.47" departLane="best" from="907839357#0" to="-22492931#3"/>
    <trip id="veh166" type="veh_passenger" depart="475.19" departLane="best" from="997771259#1" to="620127940#0"/>
    <trip id="veh167" type="veh_passenger" depart="478.06" departLane="best" departSpeed="max" from="-159534243" to="103541123#2"/>
    <trip id="veh168" type="veh_passenger" depart="480.92" departLane="best" from="28037992#4" to="83675540#5"/>
    <trip id="veh169" type="veh_passenger" depart="483.78" departLane="best" departSpeed="max" from="-E36" to="22650378#3"/>
    <trip id="veh171" type="veh_passenger" depart="489.51" departLane="best" departSpeed="max" from="-100100940" to="881567588"/>
    <trip id="veh172" type="veh_passenger" depart="492.37" departLane="best" from="174897333#2" to="28027974#2"/>
    <trip id="veh173" type="veh_passenger" depart="495.23" departLane="best" from="28866079#0" to="28019453#0"/>
    <trip id="veh174" type="veh_passenger" depart="498.10" departLane="best" departSpeed="max" from="-907839354" to="-109868571#0"/>
    <trip id="veh175" type="veh_passenger" depart="500.96" departLane="best" from="23749363#0" to="-88439575#0"/>
    <trip id="veh176" type="veh_passenger" depart="503.82" departLane="best" from="-807805157#2" to="-620127949#0"/>
    <trip id="veh177" type="veh_passenger" depart="506.68" departLane="best" from="717380723#5" to="102145966"/>
    <trip id="veh178" type="veh_passenger" depart="509.55" departLane="best" departSpeed="max" from="100965608#0" to="-83674650"/>
    <trip id="veh179" type="veh_passenger" depart="512.41" departLane="best" departSpeed="max" from="-207070219" to="102164655"/>
    <trip id="veh180" type="veh_passenger" depart="515.27" departLane="best" departSpeed="max" from="907839367" to="28021111#1"/>
    <trip id="veh181" type="veh_passenger" depart="518.13" departLane="best" departSpeed="max" from="83675527#1" to="-23031244#3"/>
    <trip id="veh182" type="veh_passenger" depart="521.00" departLane="best" from="-717380719#2" to="207070219"/>
    <trip id="veh183" type="veh_passenger" depart="523.86" departLane="best" departSpeed="max" from="-100100940" to="83674622#1"/>
    <trip id="veh184" type="veh_passenger" depart="526.72" departLane="best" from="102164659" to="22650414#1"/>
    <trip id="veh185" type="veh_passenger" depart="529.58" departLane="best" from="24526908#0" to="104493151#1"/>
    <trip id="veh186" type="veh_passenger" depart="532.45" departLane="best" departSpeed="max" from="1033371820" to="-391891766#6"/>
    <trip id="veh187" type="veh_passenger" depart="535.31" departLane="best" from="105196544#2" to="83674649"/>
    <trip id="veh189" type="veh_passenger" depart="541.03" departLane="best" from="23749256#2" to="916754558#0"/>
    <trip id="veh190" type="veh_passenger" depart="543.90" departLane="best" departSpeed="max" from="570426101#0" to="-292643664#11"/>
    <trip id="veh191" type="veh_passenger" depart="546.76" departLane="best" from="28000506#0" to="44420537#1"/>
    <trip id="veh192" type="veh_passenger" depart="549.62" departLane="best" departSpeed="max" from="-28027975" to="-102145981#4"/>
    <trip id="veh193" type="veh_passenger" depart="552.48" departLane="best" from="391891766#7" to="105321654#0"/>
    <trip id="veh194" type="veh_passenger" depart="555.35" departLane="best" from="689277289#0" to="-120588585#0"/>
    <trip id="veh195" type="veh_passenger" depart="558.21" departLane="best" from="102077272#2" to="23749256#0"/>
    <trip id="veh196" type="veh_passenger" depart="561.07" departLane="best" from="1107701847173" to="-559475282#4"/>
    <trip id="veh197" type="veh_passenger" depart="563.94" departLane="best" from="-24526908#4" to="-100132095#0"/>
    <trip id="veh198" type="veh_passenger" depart="566.80" departLane="best" from="292643665#4" to="371925364"/>
    <trip id="veh199" type="veh_passenger" depart="569.66" departLane="best" from="157989544" to="102173037#0"/>
    <trip id="veh200" type="veh_passenger" depart="572.52" departLane="best" from="157989176#0" to="104493131#5"/>
    <trip id="veh201" type="veh_passenger" depart="575.39" departLane="best" from="-44419760#4" to="-620127951#0"/>
    <trip id="veh202" type="veh_passenger" depart="578.25" departLane="best" from="-104493122" to="447053041#4"/>
    <trip id="veh203" type="veh_passenger" depart="581.11" departLane="best" departSpeed="max" from="254622403#0" to="E32"/>
    <trip id="veh204" type="veh_passenger" depart="583.97" departLane="best" from="22650422#1" to="907839357#1"/>
    <trip id="veh205" type="veh_passenger" depart="586.84" departLane="best" from="620120798#6" to="207070219"/>
    <trip id="veh206" type="veh_passenger" depart="589.70" departLane="best" from="83674768" to="28038008"/>
    <trip id="veh207" type="veh_passenger" depart="592.56" departLane="best" departSpeed="max" from="105196552" to="-620120792"/>
    <trip id="veh208" type="veh_passenger" depart="595.42" departLane="best" from="44419470#5" to="23749363#4"/>
    <trip id="veh209" type="veh_passenger" depart="598.29" departLane="best" departSpeed="max" from="371925354" to="159663520#1"/>
    <trip id="veh210" type="veh_passenger" depart="601.15" departLane="best" from="23749115#0" to="-717380720#3"/>
    <trip id="veh211" type="veh_passenger" depart="604.01" departLane="best" from="-104493151#1" to="-83674622#0"/>
    <trip id="veh212" type="veh_passenger" depart="606.87" departLane="best" from="174897333#3" to="-241481353"/>
    <trip id="veh214" type="veh_passenger" depart="612.60" departLane="best" departSpeed="max" from="28027284#0" to="-105196553#0"/>
    <trip id="veh215" type="veh_passenger" depart="615.46" departLane="best" from="-102077254#2" to="-190876198"/>
    <trip id="veh216" type="veh_passenger" depart="618.33" departLane="best" departSpeed="max" from="102081695#0" to="-34779710#0"/>
    <trip id="veh217" type="veh_passenger" depart="621.19" departLane="best" departSpeed="max" from="102145981#4" to="-83674767#2"/>
    <trip id="veh219" type="veh_passenger" depart="626.91" departLane="best" from="-99885096#8" to="-100132095#0"/>
    <trip id="veh220" type="veh_passenger" depart="629.78" departLane="best" from="-88439558#1" to="23749256#2"/>
    <trip id="veh221" type="veh_passenger" depart="632.64" departLane="best" from="717380717#3" to="907839368#3"/>
    <trip id="veh222" type="veh_passenger" depart="635.50" departLane="best" from="102145963" to="28038161"/>
    <trip id="veh223" type="veh_passenger" depart="638.36" departLane="best" from="190876198" to="22674680#5.197"/>
    <trip id="veh224" type="veh_passenger" depart="641.23" departLane="best" departSpeed="max" from="-28038007#1" to="44419760#0"/>
    <trip id="veh225" type="veh_passenger" depart="644.09" departLane="best" from="1024920554" to="-102165319"/>
    <trip id="veh226" type="veh_passenger" depart="646.95" departLane="best" from="83675527#2" to="-28021111#2"/>
    <trip id="veh228" type="veh_passenger" depart="652.68" departLane="best" from="104493152#2" to="-23748652#0"/>
    <trip id="veh229" type="veh_passenger" depart="655.54" departLane="best" from="23749079#0" to="-102146448#1"/>
    <trip id="veh230" type="veh_passenger" depart="658.40" departLane="best" departSpeed="max" from="100132095#0" to="22650367#0"/>
    <trip id="veh231" type="veh_passenger" depart="661.26" departLane="best" from="-102077272#2" to="23965518"/>
    <trip id="veh232" type="veh_passenger" depart="664.13" departLane="best" from="-228894136#2" to="104493133"/>
    <trip id="veh233" type="veh_passenger" depart="666.99" departLane="best" from="-103670697#0" to="-1002022807"/>
    <trip id="veh234" type="veh_passenger" depart="669.85" departLane="best" from="-28037991#3" to="88439558#3"/>
    <trip id="veh235" type="veh_passenger" depart="672.71" departLane="best" from="356792299#0" to="1002022807"/>
    <trip id="veh236" type="veh_passenger" depart="675.58" departLane="best" from="292643665#4" to="619881875"/>
    <trip id="veh237" type="veh_passenger" depart="678.44" departLane="best" from="-44419782#0" to="-157986565#2"/>
    <trip id="veh238" type="veh_passenger" depart="681.30" departLane="best" from="-100380474#2" to="180170772"/>
    <trip id="veh239" type="veh_passenger" depart="684.17" departLane="best" departSpeed="max" from="E9" to="-E2"/>
    <trip id="veh240" type="veh_passenger" depart="687.03" departLane="best" from="24520391" to="44419760#2"/>
    <trip id="veh241" type="veh_passenger" depart="689.89" departLane="best" from="24520408#2" to="23749256#2"/>
    <trip id="veh242" type="veh_passenger" depart="692.75" departLane="best" from="923157459#0" to="-292643664#11"/>
    <trip id="veh244" type="veh_passenger" depart="698.48" departLane="best" departSpeed="max" from="-207070219" to="28019453#0"/>
    <trip id="veh245" type="veh_passenger" depart="701.34" departLane="best" departSpeed="max" from="22650366" to="-44419470#3"/>
    <trip id="veh246" type="veh_passenger" depart="704.20" departLane="best" from="28027085#0" to="356792299#1"/>
    <trip id="veh247" type="veh_passenger" depart="707.07" departLane="best" from="292643664#9" to="-22492931#1"/>
    <trip id="veh248" type="veh_passenger" depart="709.93" departLane="best" from="570426101#1" to="923157465#1"/>
    <trip id="veh249" type="veh_passenger" depart="712.79" departLane="best" departSpeed="max" from="-159534243" to="102145987"/>
    <trip id="veh250" type="veh_passenger" depart="715.65" departLane="best" from="-807805157#0" to="28021111#1"/>
    <trip id="veh251" type="veh_passenger" depart="718.52" departLane="best" from="99751842" to="-102077270#3"/>
    <trip id="veh252" type="veh_passenger" depart="721.38" departLane="best" from="28027589#4" to="120588586#4"/>
    <trip id="veh253" type="veh_passenger" depart="724.24" departLane="best" from="28021910#0" to="23749115#1"/>
    <trip id="veh254" type="veh_passenger" depart="727.10" departLane="best" from="157984988#0" to="-391891766#1"/>
    <trip id="veh256" type="veh_passenger" depart="732.83" departLane="best" from="44420537#0" to="-99939360#2"/>
    <trip id="veh257" type="veh_passenger" depart="735.69" departLane="best" from="102146449" to="100101559"/>
    <trip id="veh258" type="veh_passenger" depart="738.55" departLane="best" departSpeed="max" from="120789326#1" to="-99885096#0"/>
    <trip id="veh259" type="veh_passenger" depart="741.42" departLane="best" from="689277289#0" to="561322876#1"/>
    <trip id="veh260" type="veh_passenger" depart="744.28" departLane="best" departSpeed="max" from="-157986560#2" to="918645546"/>
    <trip id="veh261" type="veh_passenger" depart="747.14" departLane="best" from="23749363#0" to="-570426101#5"/>
    <trip id="veh262" type="veh_passenger" depart="750.01" departLane="best" from="28027284#0.16" to="103670697#0"/>
    <trip id="veh263" type="veh_passenger" depart="752.87" departLane="best" departSpeed="max" from="28038025" to="923329650"/>
    <trip id="veh264" type="veh_passenger" depart="755.73" departLane="best" from="174897333#1" to="109868570#0"/>
    <trip id="veh266" type="veh_passenger" depart="761.46" departLane="best" from="51167745#4" to="689277285#0"/>
    <trip id="veh267" type="veh_passenger" depart="764.32" departLane="best" from="620120798#6" to="-159663520#0"/>
    <trip id="veh268" type="veh_passenger" depart="767.18" departLane="best" departSpeed="max" from="83674622#0" to="-559475282#4"/>
    <trip id="veh269" type="veh_passenger" depart="770.04" departLane="best" from="-99885096#5" to="-102165319"/>