<?xml version="1.0" encoding="UTF-8"?>

<additional xmlns:xsi="http://www.w3.org/2001/XMLSchema-instance" xsi:noNamespaceSchemaLocation="http://sumo.dlr.de/xsd/additional_file.xsd">

      <edgeData id="254622403" type="emissions" period="300" file="emission_Test.xml"/>
     
     
     
</additional>
