<routes xmlns:xsi="http://www.w3.org/2001/XMLSchema-instance" xsi:noNamespaceSchemaLocation="http://sumo.dlr.de/xsd/routes_file.xsd">

<vType id="in_t_pg_cfm_k_jm_m_lcm_e_kr"
       vClass="passenger"
       accel="2.6"
       decel="4.5"
       emergencyDecel="9.0"
       length="5"
       maxSpeed="55.55"
       minGap="2.5"
       sigma="0.5"
       speedFactor="normc(1,0.1,0.2,2)"
       carFollowModel="Krauss"
       impatience="0.25"
       jmCrossingGap="3"
       jmIgnoreKeepClearTime="300"
       laneChangeModel="LC2013"
       lcStrategic="0.0"
       lcCooperative="0.0"
       lcSpeedGain="0.0"
       lcKeepRight="1.0"
       lcOvertakeRight="0.0"
       lcOpposite="0.25"/>

<vType id="in_t_pg_cfm_k_jm_m_lcm_e_m"
       vClass="passenger"
       accel="2.6"
       decel="4.5"
       emergencyDecel="9.0"
       length="5"
       maxSpeed="55.55"
       minGap="2.5"
       sigma="0.5"
       speedFactor="normc(1,0.1,0.2,2)"
       carFollowModel="Krauss"
       impatience="0.25"
       jmCrossingGap="3"
       jmIgnoreKeepClearTime="300"
       laneChangeModel="LC2013"
       lcStrategic="0.5"
       lcCooperative="0.0"
       lcSpeedGain="0.5"
       lcKeepRight="0.25"
       lcOvertakeRight="0.0"
       lcOpposite="0.25"/>

<vType id="in_t_pg_cfm_k_jm_a_lcm_e_kr"
       vClass="passenger"
       accel="2.6"
       decel="4.5"
       emergencyDecel="9.0"
       length="5"
       maxSpeed="55.55"
       minGap="2.5"
       sigma="0.5"
       speedFactor="normc(1,0.1,0.2,2)"
       carFollowModel="Krauss"
       impatience="1.0"
       jmCrossingGap="1"
       jmIgnoreKeepClearTime="300"
       laneChangeModel="LC2013"
       lcStrategic="0.0"
       lcCooperative="0.0"
       lcSpeedGain="0.0"
       lcKeepRight="1.0"
       lcOvertakeRight="0.0"
       lcOpposite="0.25"/>

<vType id="in_t_pg_cfm_k_jm_a_lcm_e_a"
       vClass="passenger"
       accel="2.6"
       decel="4.5"
       emergencyDecel="9.0"
       length="5"
       maxSpeed="55.55"
       minGap="2.5"
       sigma="0.5"
       speedFactor="normc(1,0.1,0.2,2)"
       carFollowModel="Krauss"
       impatience="1.0"
       jmCrossingGap="1"
       jmIgnoreKeepClearTime="300"
       laneChangeModel="LC2013"
       lcStrategic="0.75"
       lcCooperative="0.0"
       lcSpeedGain="0.75"
       lcKeepRight="0.0"
       lcOvertakeRight="0.0"
       lcOpposite="0.25"/>

   
<flow begin="0.00" color="white" departLane="random" departSpeed="max" end="3600.00" id="f_r2ps_to_ach1_1" period="exp(0.034)" type="in_t_pg_cfm_k_jm_a_lcm_e_kr"> 
    <route edges="814259719 689277284#0 689277288#0 689277288#1 689277288#2 881567591#0 881567591#1 881567591#2 542209564#3 542209564#4 542209564#5 542209564#6 542209564#7 760744245" /> 
  </flow>
  
  <flow begin="0.00" color="white" departLane="random" departSpeed="max" end="3600.00" id="f_r2ps_to_ach1_2" period="exp(0.001)" type="in_t_pg_cfm_k_jm_a_lcm_e_kr"> 
    <route edges="814259719 689277284#0 689277284#1 689277284#2 689277281#7 689277286#0 689277286#1 881567591#0 881567591#1 881567591#2 542209564#3 542209564#4 542209564#5 542209564#6 542209564#7 760744245" /> 
  </flow>

  <flow begin="0" color="white" departLane="random" departSpeed="max" end="3600.00" id="f_r2ps_to_mgp_1" period="exp(0.034)" type="in_t_pg_cfm_k_jm_a_lcm_e_kr"> 
    <route edges="814259719 689277284#0 689277288#0 689277288#1 689277288#2 881567591#0 881567591#1 881567591#2 542209564#3 542209564#4 -221257123#6 -221257123#4" /> 
  </flow>
  
  <flow begin="0" color="white" departLane="random" departSpeed="max" end="3600.00" id="f_r2ps_to_mgp_2" period="exp(0.001)" type="in_t_pg_cfm_k_jm_a_lcm_e_kr"> 
    <route edges="814259719 689277284#0 689277284#1 689277284#2 689277281#7 689277286#0 689277286#1 881567591#0 881567591#1 881567591#2 542209564#3 542209564#4 -221257123#6 -221257123#4" /> 
  </flow>
  
  <flow begin="0.00" color="white" departLane="random" departSpeed="max" end="3600.00" id="f_r2ps_to_bk" period="exp(0.002)" type="in_t_pg_cfm_k_jm_a_lcm_e_kr"> 
    <route edges="814259719 689277284#0 689277288#0 875403160#0 E27" /> 
  </flow> 
  
  <flow begin="0.00" color="white" departLane="random" departSpeed="max" end="3600.00" id="f_r2ps_to_ikia" period="exp(0.035)" type="in_t_pg_cfm_k_jm_a_lcm_e_kr"> 
    <route edges="814259719 689277284#0 689277284#1 689277284#2 689277281#7 689277281#8 689277281#9 689277285#0 689277285#1 28020753#0 28020753#1 28020753#2 1107701845 28021059#1 1107701841 1107701839#0 1107701839#1 563359083 174897340 1107701836 28021111#1 28021111#1.61 28021111#2 28021111#3 28021111#5 28021111#5.27 570426792 23749315#2 23749315#3 23749315#4 23749315#5 23749315#6 23749417 23903302#0 23903302#1 23903302#3 1132143382#1 170556796#6 170556796#1 -E9" /> 
  </flow>
  
  

  <flow begin="0.00" color="white" departLane="random" departSpeed="max" end="3600.00" id="f_r2ps_to_but" period="exp(0.025)" type="in_t_pg_cfm_k_jm_a_lcm_e_kr"> 
    <route edges="814259719 689277284#0 689277284#1 689277284#2 689277281#7 689277281#8 689277281#9 689277281#10 689277281#1 689277281#2 689277281#3 689277289#0 689277289#1 -591402342#1 -591402342#0 -22674672 22674680#0 23748761#4 23748761#5 1002022808#0 1002022809 1002022807 561322876#0 561322876#1 561322877#0 561322877#2 561322877#3 44419469 44419470#5 44419470#7 23748847#1 23748847#2 23748877#0 23748877#1 23748877#2 23748877#3 23748877#4 23748860#1 23748860#2 23748860#3 -292643664#11 -292643664#10.7 -292643664#9 -292643664#7 -292643664#5 -292643664#4 -292643664#0 -620127946#2 -620127946#0 -620127948#1" /> 
  </flow>
  
  
  <flow begin="0.00" color="white" departLane="random" departSpeed="max" end="3600.00" id="f_r2ps_to_alpha" period="exp(0.025)" type="in_t_pg_cfm_k_jm_a_lcm_e_kr"> 
    <route edges="814259719 689277284#0 689277284#1 689277284#2 689277281#7 689277281#8 689277281#9 689277281#10 689277281#1 689277281#2 689277281#3 689277289#0 689277289#1 -591402342#1 -591402342#0 -22674672 22674680#0 23748761#4 23748761#5 1002022808#0 1002022809 1002022807 561322876#0 561322876#1 561322877#0 561322877#2 561322877#3 44419469 44419470#5 44419470#7 23748847#1 23748847#2 23748877#0 23748877#1 23748877#2 23748877#3 23748877#4 23748860#1 23748860#2 28866079#0 28866079#1 157989177 157986566#3 157989175#0 157989175#1 157989175#2 157989175#3 157989542#3 157989543#0 157989543#1 157989544 104493143#0 104493143#1 44420553#2 44420553#3 44420553#4 44420553#5 923157459#0 923157459#1 104493157 923157458 104493122 104493131#0 104493131#1 104493131#2 104493131#3 104493131#4 104493131#5 923157461 44420520#5 44420520#6 44420520#7 923157464#0 -44420537#2 -44420537#1 -44420537#0 22650375#4 22650375#5 22650375#6 22650375#7 22650375#1 22650414#0 22650414#0.19 22650414#1 22650414#2 22650414#2.34 22650414#3 23749113#1 160615652#0 160615652#1" /> 
  </flow>
  
  
  <flow begin="0.00" color="white" departLane="random" departSpeed="max" end="3600.00" id="f_r2ps_to_onation" period="exp(0.025)" type="in_t_pg_cfm_k_jm_a_lcm_e_kr"> 
    <route edges="814259719 689277284#0 689277284#1 689277284#2 689277281#7 689277281#8 689277281#9 689277281#10 689277281#1 689277281#2 689277281#3 689277289#0 689277289#1 -591402342#1 -591402342#0 -22674672 22674680#0 23748761#4 23748761#5 1002022808#0 1002022809 1002022807 561322876#0 561322876#1 561322877#0 561322877#2 561322877#3 44419469 44419470#5 44419470#7 23748847#1 23748847#2 23748877#0 23748877#1 23748877#2 23748877#3 23748877#4 23748860#1 23748860#2 28866079#0 28866079#1 157989177 157986566#3 157989175#0 157989175#1 157989175#2 157989175#3 157989542#3 157989543#0 157989543#1 157989544 104493143#0 104493143#1 44420553#2 44420553#3 44420553#4 44420553#5 923157459#0 923157459#1 104493157 923157458 104493122 104493131#0 104493131#1 104493131#2 104493131#3 104493131#4 104493131#5 923157461 44420520#5 44420520#6 44420520#7 923157464#0 -44420537#2 -44420537#1 -44420537#0 22650375#4 22650378#0 22650378#1 22650378#2 22650378#3 356792291#1 356792291#2 356792291#3 356792291#4 510762961 100376010 620127931#0 620127931#1" /> 
  </flow>
  

  <flow begin="0.00" color="blue" departLane="random" departSpeed="avg" end="3600.00" id="f_r2pn_to_ach1" period="exp(0.03)" type="in_t_pg_cfm_k_jm_m_lcm_e_kr">
    <route edges="22568418 22468300#1 22468300#2 22468300#3 22468300#4 22468241 881567588 689277282 881567590#0 881567590#1 689277281#1 689277281#2 689277281#3 689277281#4 689277281#5 689277281#6 689277281#7 689277286#0 689277286#1 881567591#0 881567591#1 881567591#2 542209564#3 542209564#4 542209564#5 542209564#6 542209564#7 760744245" /> 
  </flow>
  
  <flow begin="0.00" color="blue" departLane="random" departSpeed="avg" end="3600.00" id="f_r2pn_to_mgp" period="exp(0.03)" type="in_t_pg_cfm_k_jm_m_lcm_e_kr"> 
    <route edges="22568418 22468300#1 22468300#2 22468300#3 22468300#4 22468241 881567588 689277282 881567590#0 881567590#1 689277281#1 689277281#2 689277281#3 689277281#4 689277281#5 689277281#6 689277281#7 689277286#0 689277286#1 881567591#0 881567591#1 881567591#2 542209564#3 542209564#4 -221257123#6 -221257123#4" /> 
  </flow>
  
  <flow begin="0.00" color="blue" departLane="random" departSpeed="avg" end="3600.00" id="f_r2pn_to_ikia" period="exp(0.03)" type="in_t_pg_cfm_k_jm_m_lcm_e_kr"> 
    <route edges="22568418 22468300#1 22468300#2 22468300#3 22468300#4 22468300#5 22468300#6 22468300#7 102164651 -102164655 102165315 102165317#2 102165317#3 E13 102164657 619881884 102165688#0 524387944 28002710" /> 
  </flow>
  
  <flow begin="0.00" color="blue" departLane="random" departSpeed="avg" end="3600.00" id="f_r2pn_to_but" period="exp(0.02)" type="in_t_pg_cfm_k_jm_m_lcm_e_kr"> 
    <route edges="22568418 22468300#1 22468300#2 22468300#3 22468300#4 22468300#5 22468300#6 22468300#7 102164651 -102164655 102165315 102165317#2 102165317#3 E13 102164657 619881884 102165688#0 102165688#1 1136268465 190876198 28000507#1 22650412#1 22650412#2 22650412#3 23749256#0 23749256#1 23749256#2 620127944" /> 
  </flow>
  
  <flow begin="0.00" color="blue" departLane="random" departSpeed="avg" end="3600.00" id="f_r2pn_to_alpha" period="exp(0.02)" type="in_t_pg_cfm_k_jm_m_lcm_e_kr">
    <route edges="22568418 22468300#1 22468300#2 22468300#3 22468300#4 22468300#5 22468300#6 22468300#7 102164651 -102164655 102165315 102165317#2 102165317#3 E13 102164657 619881884 102165688#0 102165688#1 1136268465 190876198 28000507#1 22650412#1 22650412#2 22650412#3 22650412#4 22650412#5 22650417#0 22650417#1 22650417#2 22650417#3 22650417#4 23749113#5 23749113#6 23749113#1 160615652#0 160615652#1" /> 
  </flow>
  
  <flow begin="0.00" color="blue" departLane="random" departSpeed="avg" end="3600.00" id="f_r2pn_to_onation" period="exp(0.02)" type="in_t_pg_cfm_k_jm_m_lcm_e_kr"> 
    <route edges="22568418 22468300#1 22468300#2 22468300#3 22468300#4 22468300#5 22468300#6 22468300#7 102164651 -102164655 102165315 102165317#2 102165317#3 E13 102164657 619881884 102165688#0 102165688#1 1136268465 190876198 28000507#1 22650412#1 22650412#2 22650412#3 22650412#4 22650412#5 22650417#0 22650417#1 22650417#2 22650417#3 22650417#4 23749113#5 23749079#0 23749079#1 23749079#1.237 22650375#3 22650375#4 22650378#0 22650378#1 22650378#2 22650378#3 356792291#1 356792291#2 356792291#3 356792291#4 510762961 100376010 620127931#0 620127931#1" /> 
  </flow>
 
  
  <flow begin="0.00" color="orange" departLane="random" departSpeed="avg" end="3600.00" id="f_plsr_to_ach1" period="exp(0.025)" type="in_t_pg_cfm_k_jm_m_lcm_e_kr"> 
    <route edges="254622403#0 570426100#3 22674672 591402342#0 591402342#1 689277290#0 689277290#1 689277281#5 689277281#6 689277281#7 689277286#0 689277286#1 881567591#0 881567591#1 881567591#2 542209564#3 542209564#4 542209564#5 542209564#6 542209564#7 760744245" /> 
  </flow>

  <flow begin="0.00" color="orange" departLane="random" departSpeed="avg" end="3600.00" id="f_plsr_to_mgp" period="exp(0.025)" type="in_t_pg_cfm_k_jm_m_lcm_e_kr"> 
    <route edges="254622403#0 570426100#3 22674672 591402342#0 591402342#1 689277290#0 689277290#1 689277281#5 689277281#6 689277281#7 689277286#0 689277286#1 881567591#0 881567591#1 881567591#2 542209564#3 542209564#4 -221257123#6 -221257123#4" /> 
  </flow>

  <flow begin="0.00" color="orange" departLane="random" departSpeed="avg" end="3600.00" id="f_plsr_to_ikia_1" period="exp(0.015)" type="in_t_pg_cfm_k_jm_m_lcm_e_kr"> 
    <route edges="254622403#0 570426100#3 22674672 591402342#0 591402342#1 689277290#0 689277290#1 689277281#5 689277281#6 689277281#7 689277281#8 689277281#9 689277285#0 689277285#1 28020753#0 28020753#1 28020753#2 1107701845 28021059#1 1107701841 1107701839#0 1107701839#1 563359083 174897340 1107701836 28021111#1 28021111#1.61 28021111#2 28021111#3 28021111#5 28021111#5.27 570426792 23749315#2 23749315#3 23749315#4 23749315#5 23749315#6 23749417 23903302#0 23903302#1 23903302#3 1132143382#1 170556796#6 170556796#1 -E9" /> 
  </flow>

  <flow begin="0.00" color="orange" departLane="random" departSpeed="avg" end="3600.00" id="f_plsr_to_ikia_2" period="exp(0.01)" type="in_t_pg_cfm_k_jm_m_lcm_e_kr"> 
    <route edges="290304847 1002022805 1002022809 1002022807 561322876#0 561322876#1 561322877#0 561322877#2 561322877#3 44419469 44419470#5 44419470#7 23748847#1 23748847#2 23748847#3 -24526908#6 -24526908#5 -24526908#4 -24526908#3 -24526908#2 -24526908#0 -620120791 24520290#1 24520290#2 24520408#0 24520408#1 24520408#2 24520408#3 24520408#4 22650420#5 22650420#6 22650420#7 23749340 254360506#1 254360506#2 23749315#6 23749417 23903302#0 23903302#1 23903302#3 1132143382#1 170556796#6 170556796#1 -E9" /> 
  </flow>

  
  <flow begin="0.00" color="orange" departLane="random" departSpeed="avg" end="3600.00" id="f_plsr_to_but" period="exp(0.015)" type="in_t_pg_cfm_k_jm_m_lcm_e_kr"> 
    <route edges="254622403#0 23748761#4 23748761#5 1002022808#0 1002022809 1002022807 561322876#0 561322876#1 561322877#0 561322877#2 561322877#3 44419469 44419470#5 44419470#7 23748847#1 23748847#2 23748877#0 23748877#1 23748877#2 23748877#3 23748877#4 23748860#1 23748860#2 23748860#3 -292643664#11 -292643664#10.7 -292643664#9 -292643664#7 -292643664#5 -292643664#4 -292643664#0 -620127946#2 -620127946#0 -620127948#1" /> 
  </flow>

  <flow begin="0.00" color="orange" departLane="random" departSpeed="avg" end="3600.00" id="f_plsr_to_alpha" period="exp(0.015)" type="in_t_pg_cfm_k_jm_m_lcm_e_kr"> 
    <route edges="254622403#0 23748761#4 23748761#5 1002022808#0 1002022809 1002022807 561322876#0 561322876#1 561322877#0 561322877#2 561322877#3 44419469 44419470#5 44419470#7 23748847#1 23748847#2 23748877#0 23748877#1 23748877#2 23748877#3 23748877#4 23748860#1 23748860#2 28866079#0 28866079#1 157989177 157986566#3 157989175#0 157989175#1 157989175#2 157989175#3 157989542#3 157989543#0 157989543#1 157989544 104493143#0 104493143#1 44420553#2 44420553#3 44420553#4 44420553#5 923157459#0 923157459#1 104493157 923157458 104493122 104493131#0 104493131#1 104493131#2 104493131#3 104493131#4 104493131#5 923157461 44420520#5 44420520#6 44420520#7 923157464#0 -44420537#2 -44420537#1 -44420537#0 22650375#4 22650375#5 22650375#6 22650375#7 22650375#1 22650414#0 22650414#0.19 22650414#1 22650414#2 22650414#2.34 22650414#3 23749113#1 160615652#0 160615652#1" /> 
  </flow>

  <flow begin="0.00" color="orange" departLane="random" departSpeed="avg" end="3600.00" id="f_plsr_to_onation" period="exp(0.015)" type="in_t_pg_cfm_k_jm_m_lcm_e_kr"> 
    <route edges="254622403#0 23748761#4 23748761#5 1002022808#0 1002022809 1002022807 561322876#0 561322876#1 561322877#0 561322877#2 561322877#3 44419469 44419470#5 44419470#7 23748847#1 23748847#2 23748877#0 23748877#1 23748877#2 23748877#3 23748877#4 23748860#1 23748860#2 28866079#0 28866079#1 157989177 157986566#3 157989175#0 157989175#1 157989175#2 157989175#3 157989542#3 157989543#0 157989543#1 157989544 104493143#0 104493143#1 44420553#2 44420553#3 44420553#4 44420553#5 923157459#0 923157459#1 104493157 923157458 104493122 104493131#0 104493131#1 104493131#2 104493131#3 104493131#4 104493131#5 923157461 44420520#5 44420520#6 44420520#7 923157464#0 -44420537#2 -44420537#1 -44420537#0 22650375#4 22650378#0 22650378#1 22650378#2 22650378#3 356792291#1 356792291#2 356792291#3 356792291#4 510762961 100376010 620127931#0 620127931#1" /> 
  </flow>

  <flow begin="0.00" color="cyan" departLane="random" departSpeed="avg" end="3600.00" id="f_grgn_to_ach1" period="exp(0.02)" type="in_t_pg_cfm_k_jm_m_lcm_e_kr">
    <route edges="23748652#0 23748652#1 34778584#0 34778584#1 689277281#3 689277281#4 689277281#5 689277281#6 689277281#7 689277286#0 689277286#1 881567591#0 881567591#1 881567591#2 542209564#3 542209564#4 542209564#5 542209564#6 542209564#7 760744245" />
  </flow>

  <flow begin="0.00" color="cyan" departLane="random" departSpeed="avg" end="3600.00" id="f_grgn_to_mgp" period="exp(0.02)" type="in_t_pg_cfm_k_jm_m_lcm_e_kr">
    <route edges="23748652#0 23748652#1 34778584#0 34778584#1 689277281#3 689277281#4 689277281#5 689277281#6 689277281#7 689277286#0 689277286#1 881567591#0 881567591#1 881567591#2 542209564#3 542209564#4 -221257123#6 -221257123#4" />
  </flow>

  <flow begin="0.00" color="cyan" departLane="random" departSpeed="avg" end="3600.00" id="f_grgn_to_ikia" period="exp(0.02)" type="in_t_pg_cfm_k_jm_m_lcm_e_kr">
    <route edges="174897333#0 174897333#1 174897333#2 174897333#3 174897333#4 174897333#5 174897333#6 1107701849 110770184822 1107701846 1107701845 28021059#1 1107701841 1107701839#0 1107701839#1 563359083 174897340 1107701836 28021111#1 28021111#1.61 28021111#2 28021111#3 28021111#5 28021111#5.27 570426792 23749315#2 23749315#3 23749315#4 23749315#5 23749315#6 23749417 23903302#0 23903302#1 23903302#3 1132143382#1 170556796#6 170556796#1 -E9" />
  </flow>

  <flow begin="0.00" color="cyan" departLane="random" departSpeed="avg" end="3600.00" id="f_grgn_to_but" period="exp(0.01)" type="in_t_pg_cfm_k_jm_m_lcm_e_kr">
    <route edges="570426101#0 570426101#1 570426101#2 570426101#3 570426101#4 23748761#4 23748761#5 1002022808#0 1002022809 1002022807 561322876#0 561322876#1 561322877#0 561322877#2 561322877#3 44419469 44419470#5 44419470#7 23748847#1 23748847#2 23748877#0 23748877#1 23748877#2 23748877#3 23748877#4 23748860#1 23748860#2 23748860#3 -292643664#11 -292643664#10.7 -292643664#9 -292643664#7 -292643664#5 -292643664#4 -292643664#0 -620127946#2 -620127946#0 -620127948#1" />
  </flow>

  <flow begin="0.00" color="cyan" departLane="random" departSpeed="avg" end="3600.00" id="f_grgn_to_alpha" period="exp(0.01)" type="in_t_pg_cfm_k_jm_m_lcm_e_kr">
    <route edges="570426101#0 570426101#1 570426101#2 570426101#3 570426101#4 23748761#4 23748761#5 1002022808#0 1002022809 1002022807 561322876#0 561322876#1 561322877#0 561322877#2 561322877#3 44419469 44419470#5 44419470#7 23748847#1 23748847#2 23748877#0 23748877#1 23748877#2 23748877#3 23748877#4 23748860#1 23748860#2 28866079#0 28866079#1 157989177 157986566#3 157989175#0 157989175#1 157989175#2 157989175#3 157989542#3 157989543#0 157989543#1 157989544 104493143#0 104493143#1 44420553#2 44420553#3 44420553#4 44420553#5 923157459#0 923157459#1 104493157 923157458 104493122 104493131#0 104493131#1 104493131#2 104493131#3 104493131#4 104493131#5 923157461 44420520#5 44420520#6 44420520#7 923157464#0 -44420537#2 -44420537#1 -44420537#0 22650375#4 22650375#5 22650375#6 22650375#7 22650375#1 22650414#0 22650414#0.19 22650414#1 22650414#2 22650414#2.34 22650414#3 23749113#1 160615652#0 160615652#1" />
  </flow>

  <flow begin="0.00" color="cyan" departLane="random" departSpeed="avg" end="3600.00" id="f_grgn_to_onation" period="exp(0.01)" type="in_t_pg_cfm_k_jm_m_lcm_e_kr">
    <route edges="570426101#0 570426101#1 570426101#2 570426101#3 570426101#4 23748761#4 23748761#5 1002022808#0 1002022809 1002022807 561322876#0 561322876#1 561322877#0 561322877#2 561322877#3 44419469 44419470#5 44419470#7 23748847#1 23748847#2 23748877#0 23748877#1 23748877#2 23748877#3 23748877#4 23748860#1 23748860#2 28866079#0 28866079#1 157989177 157986566#3 157989175#0 157989175#1 157989175#2 157989175#3 157989542#3 157989543#0 157989543#1 157989544 104493143#0 104493143#1 44420553#2 44420553#3 44420541 104493151#0 104493151#1 104493151#2 104493151#3 104493151#4 -99885096#10 -99885096#9 -99885096#8 -99885096#7 -99885096#6 -99885096#5 -99885096#3 -99885096#2 -99885096#1 -99885096#0 -923412449#0 -620127937 -620127935#1 E62 -620127932#1 -620127932#0 -100380474#2 -100380474#1 -100380474#0 -923329653 356792291#2 356792291#3 356792291#4 510762961 100376010 620127931#0 620127931#1" />
  </flow>


  
  <flow begin="0.00" color="green" departLane="random" departSpeed="avg" end="3600.00" id="f_vlpr_to_ach1" period="exp(0.02)" type="in_t_pg_cfm_k_jm_a_lcm_e_a"> 
    <route edges="356789687 102165316 102165313 102165317#0 102165317#1 102165317#2 102165317#3 E13 102164657 619881884 102165688#0 102165688#1 1136268465 190876198 28000507#1 22650412#1 22650422#0 22650422#1 22650422#2 22650422#3 22650422#4 22650420#7 22650420#8 22650420#1 22650446#0 22650446#1 542209564#7 760744245" /> 
  </flow>

  <flow begin="0.00" color="green" departLane="random" departSpeed="avg" end="3600.00" id="f_vlpr_to_mgp" period="exp(0.02)" type="in_t_pg_cfm_k_jm_a_lcm_e_a"> 
    <route edges="356789687 102165316 102165313 102165317#0 102165317#1 102165317#2 102165317#3 E13 102164657 619881884 102165688#0 102165688#1 1136268465 190876198 28000507#1 22650412#1 22650422#0 22650422#1 22650422#2 22650422#3 22650422#4 22650420#7 22650420#8 22650420#1 22650446#0 22650446#1 542209564#7 542209564#8 542209564#1 542209564#2 542209564#3 542209564#4 -221257123#6 -221257123#4" /> 
  </flow>

  <flow begin="0.00" color="green" departLane="random" departSpeed="avg" end="3600.00" id="f_vlpr_to_ikia" period="exp(0.02)" type="in_t_pg_cfm_k_jm_m_lcm_e_m"> 
    <route edges="356789687 102165316 102165313 102165317#0 102165317#1 102165317#2 102165317#3 E13 102164657 619881884 102165688#0 524387944 28002710" /> 
  </flow>

  <flow begin="0.00" color="green" departLane="random" departSpeed="avg" end="3600.00" id="f_vlpr_to_but" period="exp(0.01)" type="in_t_pg_cfm_k_jm_m_lcm_e_m"> 
    <route edges="356789687 102165316 102165313 102165317#0 102165317#1 102165317#2 102165317#3 E13 102164657 619881884 102165688#0 102165688#1 1136268465 190876198 28000507#1 22650412#1 22650412#2 22650412#3 23749256#0 23749256#1 23749256#2 620127944" /> 
  </flow>

  <flow begin="0.00" color="green" departLane="random" departSpeed="avg" end="3600.00" id="f_vlpr_to_alpha" period="exp(0.01)" type="in_t_pg_cfm_k_jm_m_lcm_e_m"> 
    <route edges="356789687 102165316 102165313 102165317#0 102165317#1 102165317#2 102165317#3 E13 102164657 619881884 102165688#0 102165688#1 1136268465 190876198 28000507#1 22650412#1 22650412#2 22650412#3 22650412#4 22650412#5 22650417#0 22650417#1 22650417#2 22650417#3 22650417#4 23749113#5 23749113#6 23749113#1 160615652#0 160615652#1" /> 
  </flow>

  <flow begin="0.00" color="green" departLane="random" departSpeed="avg" end="3600.00" id="f_vlpr_to_onation" period="exp(0.01)" type="in_t_pg_cfm_k_jm_m_lcm_e_m"> 
    <route edges="356789687 102165316 102165313 102165317#0 102165317#1 102165317#2 102165317#3 E13 102164657 619881884 102165688#0 102165688#1 1136268465 190876198 28000507#1 22650412#1 22650412#2 22650412#3 22650412#4 22650412#5 22650417#0 22650417#1 22650417#2 22650417#3 22650417#4 23749113#5 23749079#0 23749079#1 23749079#1.237 22650375#3 22650375#4 22650378#0 22650378#1 22650378#2 22650378#3 356792291#1 356792291#2 356792291#3 356792291#4 510762961 100376010 620127931#0 620127931#1" /> 
  </flow>

    <flow begin="0.00" color="magenta" departLane="random" departSpeed="max" end="3600.00" id="f_lcsb_to_ach1" period="exp(0.02)" type="in_t_pg_cfm_k_jm_a_lcm_e_a"> 
    <route edges="22650366 22650364#5 22650368#0 22650368#1 356792291#4 356792291#5 356792291#6 356792291#1 923329653 100380474#0 100380474#1 100380474#2 620127932#0 620127932#1 -E62 620127935#1 620127937 923412449#0 -923329650 -44420691#2 -44420691#1 -44420691#0 44420707#0 44420707#1 44420520#7 44420520#8 44420520#1 44420520#2 44420520#3 923157462 -104493131#5 -104493131#4 -104493131#3 -104493131#2 -104493131#1 -104493131#0 -104493122 -923157458 923157460 104493139#0 104493139#1 44420553#0 104493134#0 104493134#1 -157989544 157989541 157989542#5 157989542#6 157989542#1 157989173#0 157989173#1 157989173#2 157986566#5 157986566#6 157986566#1 157989171 -28866079#1 -28866079#0 23748860#3 23748860#4 -23748877#4 -23748877#3 -23748877#2 -23748877#1 -23748877#0 23748847#3 -24526908#6 -24526908#5 -24526908#4 -24526908#3 -24526908#2 -24526908#0 -620120791 24520290#1 24520290#2 24520290#3 24520290#4 28027968#0 28027971 105576889 -E2" /> 
  </flow>
 
  <flow begin="0.00" color="magenta" departLane="random" departSpeed="max" end="3600.00" id="f_lcsb_to_mgp" period="exp(0.02)" type="in_t_pg_cfm_k_jm_a_lcm_e_a"> 
    <route edges="22650366 22650364#5 22650368#0 22650368#1 356792291#4 356792291#5 356792291#6 356792291#1 923329653 100380474#0 100380474#1 100380474#2 620127932#0 620127932#1 -E62 620127935#1 620127937 923412449#0 -923329650 -44420691#2 -44420691#1 -44420691#0 44420707#0 44420707#1 44420520#7 44420520#8 44420520#1 44420520#2 44420520#3 923157462 -104493131#5 -104493131#4 -104493131#3 -104493131#2 -104493131#1 -104493131#0 -104493122 -923157458 923157460 104493139#0 104493139#1 44420553#0 104493134#0 104493134#1 -157989544 157989541 157989542#5 157989542#6 157989542#1 157989173#0 157989173#1 157989173#2 157986566#5 157986566#6 157986566#1 157989171 -28866079#1 -28866079#0 23748860#3 23748860#4 -23748877#4 -23748877#3 -23748877#2 -23748877#1 -23748877#0 23748847#3 -24526908#6 -24526908#5 -24526908#4 -24526908#3 -24526908#2 -24526908#0 -620120791 24520290#1 24520290#2 24520290#3 24520290#4 28027968#0 28027971 105576889 -E2" /> 
  </flow>

  <flow begin="0.00" color="magenta" departLane="random" departSpeed="max" end="3600.00" id="f_lcsb_to_ikia" period="exp(0.02)" type="in_t_pg_cfm_k_jm_a_lcm_e_a"> 
    <route edges="22650366 22650364#5 22650368#0 22650368#1 356792291#4 356792291#5 22650367#0 22650367#1 22650367#2 22650367#4 22650367#5 22650367#6 22650375#6 22650375#7 22650375#1 22650414#0 22650414#0.19 22650414#1 22650414#2 22650414#2.34 22650414#3 23749113#1 23749113#2 23749113#3 23749115#0 23749115#1 23749115#2 22650412#7 22650412#0 22650412#1 22650422#0 22650422#1 22650422#2 23903297#0 23903297#1 E36" /> 
  </flow>

  <flow begin="0.00" color="magenta" departLane="random" departSpeed="max" end="3600.00" id="f_lcsb_to_but" period="exp(0.01)" type="in_t_pg_cfm_k_jm_m_lcm_e_m"> 
    <route edges="22650366 22650364#5 22650368#0 22650368#1 356792291#4 356792291#5 356792291#6 356792291#1 923329653 100380474#0 100380474#1 100380474#2 620127932#0 620127932#1 -E62 620127935#1 620127937 923412449#0 -923329650 -44420691#2 -44420691#1 -44420691#0 44420707#0 44420707#1 44420520#7 44420520#8 44420520#1 44420681#0 44420681#1 -44420660#1 -44420660#0 -620127942 -103670697#4 -103670697#3 -103670697#2 -103670697#1 -103670697#0 -807805157#2 -807805157#1 -807805157#0 E31 23749256#2 620127944" /> 
  </flow>

  <flow begin="0.00" color="magenta" departLane="random" departSpeed="max" end="3600.00" id="f_lcsb_to_alpha" period="exp(0.01)" type="in_t_pg_cfm_k_jm_m_lcm_e_m"> 
    <route edges="22650366 22650364#5 22650368#0 22650368#1 356792291#4 356792291#5 22650367#0 22650367#1 22650367#2 22650367#4 22650367#5 22650367#6 22650375#6 22650375#7 22650375#1 22650414#0 22650414#0.19 22650414#1 22650414#2 22650414#2.34 22650414#3 23749113#1 160615652#0 160615652#1" /> 
  </flow>

  <flow begin="0.00" color="magenta" departLane="random" departSpeed="max" end="3600.00" id="f_lcsb_to_onation" period="exp(0.01)" type="in_t_pg_cfm_k_jm_m_lcm_e_m"> 
    <route edges="22650366 22650364#5 22650368#0 22650368#1 356792291#4 510762961 100376010 620127931#0 620127931#1" /> 
  </flow>
  
  <flow begin="0.00" color="red" departLane="random" departSpeed="max" end="3600.00" id="f_r2p_sn" period="exp(0.1)" type="in_t_pg_cfm_k_jm_a_lcm_e_a">
    <route edges="814259719 881567587 881567589 666132796 22468300#6 22468300#7 22468300#8 22468300#9 22568417" /> 
  </flow>
  
  <flow begin="0.00" color="red" departLane="random" departSpeed="max" end="3600.00" id="f_r2p_ns" period="exp(0.1)" type="in_t_pg_cfm_k_jm_a_lcm_e_a">
    <route edges="22568418 22468300#1 22468300#2 22468300#3 22468300#4 22468241 881567588 421500828 689277279 918645546 918645545 814259721" /> 
  </flow>







 <flow begin="0.00" color="white" departLane="random" departSpeed="avg" end="3600.00" id="f_ach1_to_r2ps" period="exp(0.028)" type="in_t_pg_cfm_k_jm_a_lcm_e_a"> 
    <route edges="760744243 542209564#1 1024920554 689277287#1 1024920555#0 1024920555#1 689277281#9 689277281#10 689277281#1 689277281#2 689277281#3 689277281#4 689277281#5 966303574#0 966303574#1 966303575 1024948819 689277283 918645546 918645545 814259721" /> 
  </flow>
  
  <flow begin="0.00" color="white" departLane="random" departSpeed="avg" end="3600.00" id="f_mgp_to_r2ps" period="exp(0.028)" type="in_t_pg_cfm_k_jm_a_lcm_e_a"> 
    <route edges="221257123#4 221257123#6 542209564#5 542209564#6 542209564#7 542209564#8 542209564#1 1024920554 689277287#1 1024920555#0 1024920555#1 689277281#9 689277281#10 689277281#1 689277281#2 689277281#3 689277281#4 689277281#5 966303574#0 966303574#1 966303575 1024948819 689277283 918645546 918645545 814259721" /> 
  </flow>

  <flow begin="0.00" color="white" departLane="random" departSpeed="avg" end="3600.00" id="f_ikia_to_r2ps" period="exp(0.028)" type="in_t_pg_cfm_k_jm_a_lcm_e_a"> 
    <route edges="-E36 28014492#0 28014492#1 28014492#2 170556796#3 170556796#4 26104213#0 -23903302#3 -23903302#1 -23903302#0 23749390 23749315#8 23749315#9.15 164945645 -28021111#5 -28021111#5.14 -28021111#3.20 -28021111#2 -28021111#1 24526883#0 24526883#1 174897325#0 174897325#2 254362790#0 E39 1107701854#2 28020970#1 1107701847 1107701847173 881567590#0 881567590#1 689277281#1 689277281#2 689277281#3 689277281#4 689277281#5 966303574#0 966303574#1 966303575 1024948819 689277283 918645546 918645545 814259721" /> 
  </flow>
