<?xml version="1.0" encoding="UTF-8"?>

<routes xmlns:xsi="http://www.w3.org/2001/XMLSchema-instance" xsi:noNamespaceSchemaLocation="http://sumo.dlr.de/xsd/routes_file.xsd">
  <vTypeDistribution id="rt_t_pg_cfm_k_jm_m_lcm_e_kr"
                     vTypes="t_tg t_cfm_k t_jm_m t_lcm_e_kr"/>
  <vTypeDistribution id="rt_t_pg_cfm_k_jm_m_lcm_e_m"
                     vTypes="t_tg t_cfm_k t_jm_m t_lcm_e_m"/>
  <vTypeDistribution id="rt_t_pg_cfm_k_jm_a_lcm_e_kr"
                     vTypes="t_tg t_cfm_k t_jm_a t_lcm_e_kr"/>
  <vTypeDistribution id="rt_t_pg_cfm_k_jm_a_lcm_e_a"
                     vTypes="t_tg t_cfm_k t_jm_a t_lcm_e_a"/>
  <vTypeDistribution id="truck_truck"
                     vTypes="t_tg t_cfm_k t_jm_a t_lcm_e_a"/>
    <trip id="truck0" type="truck_truck" depart="0.00" departLane="best" from="23749363#3" to="102081702#1"/>
    <trip id="truck1" type="truck_truck" depart="4.29" departLane="best" from="-44419782#0" to="-34779710#2"/>
    <trip id="truck2" type="truck_truck" depart="8.59" departLane="best" departSpeed="max" from="83674767#0" to="-120789326#1"/>
    <trip id="truck3" type="truck_truck" depart="12.88" departLane="best" from="100132094" to="-102146448#1"/>
    <trip id="truck4" type="truck_truck" depart="17.18" departLane="best" departSpeed="max" from="-28027978#2" to="-105196530#1"/>
    <trip id="truck5" type="truck_truck" depart="21.47" departLane="best" from="102077270#3" to="-28037997#0"/>
    <trip id="truck6" type="truck_truck" depart="25.76" departLane="best" departSpeed="max" from="241481354#0" to="157989171"/>
    <trip id="truck7" type="truck_truck" depart="30.06" departLane="best" from="28030459#1" to="22492934#0"/>
    <trip id="truck8" type="truck_truck" depart="34.35" departLane="best" from="559475282#1" to="-100132095#0"/>
    <trip id="truck9" type="truck_truck" depart="38.65" departLane="best" from="83674640#3" to="-28014492#0"/>
    <trip id="truck10" type="truck_truck" depart="42.94" departLane="best" from="99751842" to="-83675541"/>
    <trip id="truck11" type="truck_truck" depart="47.23" departLane="best" from="689277289#1" to="22650414#2.34"/>
    <trip id="truck13" type="truck_truck" depart="55.82" departLane="best" from="-88439558#4" to="157989543#1"/>
    <trip id="truck14" type="truck_truck" depart="60.11" departLane="best" from="620127931#0" to="228894136#2"/>
    <trip id="truck15" type="truck_truck" depart="64.41" departLane="best" from="717380721#3" to="-206157073#1"/>
    <trip id="truck16" type="truck_truck" depart="68.70" departLane="best" from="28027284#0.16" to="104493119#4"/>
    <trip id="truck17" type="truck_truck" depart="73.00" departLane="best" from="-28037991#0" to="-717380719#6"/>
    <trip id="truck18" type="truck_truck" depart="77.29" departLane="best" from="-104493131#2" to="-44419254#0"/>
    <trip id="truck19" type="truck_truck" depart="81.58" departLane="best" from="-105576889" to="-620127938#1"/>
    <trip id="truck20" type="truck_truck" depart="85.88" departLane="best" from="23749115#2" to="99885096#0"/>
    <trip id="truck21" type="truck_truck" depart="90.17" departLane="best" from="-83701765#2" to="28866079#0"/>
    <trip id="truck22" type="truck_truck" depart="94.47" departLane="best" from="44419254#1" to="88439558#2"/>
    <trip id="truck23" type="truck_truck" depart="98.76" departLane="best" departSpeed="max" from="241481353" to="22650422#3"/>
    <trip id="truck25" type="truck_truck" depart="107.35" departLane="best" from="241481354#1" to="-E30"/>
    <trip id="truck27" type="truck_truck" depart="115.94" departLane="best" from="689277282" to="-44419254#1"/>
    <trip id="truck28" type="truck_truck" depart="120.23" departLane="best" from="-28037991#3" to="-102165319"/>
    <trip id="truck29" type="truck_truck" depart="124.52" departLane="best" from="-620127946#0" to="-570426101#0"/>
    <trip id="truck30" type="truck_truck" depart="128.82" departLane="best" from="28027974#0" to="88439563#2"/>
    <trip id="truck31" type="truck_truck" depart="133.11" departLane="best" from="24520408#3" to="100100940"/>
    <trip id="truck32" type="truck_truck" depart="137.41" departLane="best" from="-83701765#2" to="102165688#1"/>
    <trip id="truck34" type="truck_truck" depart="145.99" departLane="best" from="44420681#1" to="83674642#2"/>
    <trip id="truck35" type="truck_truck" depart="150.29" departLane="best" from="-916760971#2" to="-316443377#0"/>
    <trip id="truck36" type="truck_truck" depart="154.58" departLane="best" departSpeed="max" from="E9" to="105321639"/>
    <trip id="truck37" type="truck_truck" depart="158.88" departLane="best" departSpeed="max" from="-120588586#5" to="-23748761#4"/>
    <trip id="truck38" type="truck_truck" depart="163.17" departLane="best" from="447053041#4" to="102067748#0"/>
    <trip id="truck39" type="truck_truck" depart="167.46" departLane="best" departSpeed="max" from="-104493115#3" to="-E37"/>
    <trip id="truck40" type="truck_truck" depart="171.76" departLane="best" departSpeed="max" from="E11" to="717380718#1"/>
    <trip id="truck41" type="truck_truck" depart="176.05" departLane="best" from="100132093#0" to="-28027978#0"/>
    <trip id="truck42" type="truck_truck" depart="180.34" departLane="best" from="28021059#1" to="120588586#5"/>
    <trip id="truck43" type="truck_truck" depart="184.64" departLane="best" from="-391891766#7" to="23903302#1"/>
    <trip id="truck44" type="truck_truck" depart="188.93" departLane="best" departSpeed="max" from="102145981#4" to="907839357#1"/>
    <trip id="truck45" type="truck_truck" depart="193.23" departLane="best" departSpeed="max" from="814259719" to="561322876#1"/>
    <trip id="truck47" type="truck_truck" depart="201.81" departLane="best" departSpeed="max" from="83675541" to="717380721#3"/>
    <trip id="truck48" type="truck_truck" depart="206.11" departLane="best" from="559475282#4" to="23903297#0"/>
    <trip id="truck49" type="truck_truck" depart="210.40" departLane="best" from="22650417#4" to="24526908#2"/>
    <trip id="truck50" type="truck_truck" depart="214.70" departLane="best" from="356792299#1" to="154859701"/>
    <trip id="truck51" type="truck_truck" depart="218.99" departLane="best" from="44419469" to="110770184822"/>
    <trip id="truck52" type="truck_truck" depart="223.28" departLane="best" departSpeed="max" from="-100100940" to="-83674772"/>
    <trip id="truck54" type="truck_truck" depart="231.87" departLane="best" departSpeed="max" from="83674622#0" to="619881875"/>
    <trip id="truck55" type="truck_truck" depart="236.17" departLane="best" departSpeed="max" from="83674622#0" to="88439574#1"/>
    <trip id="truck56" type="truck_truck" depart="240.46" departLane="best" departSpeed="max" from="-104493119#6" to="342586722#3"/>
    <trip id="truck57" type="truck_truck" depart="244.75" departLane="best" departSpeed="max" from="371925354" to="105467444#0"/>
    <trip id="truck58" type="truck_truck" depart="249.05" departLane="best" from="-391891766#4" to="717380722#1"/>
    <trip id="truck59" type="truck_truck" depart="253.34" departLane="best" departSpeed="max" from="100132095#0" to="-290304847"/>
    <trip id="truck61" type="truck_truck" depart="261.93" departLane="best" departSpeed="max" from="E7" to="24526908#2"/>
    <trip id="truck62" type="truck_truck" depart="266.22" departLane="best" from="-102077254#2" to="105467444#1"/>
    <trip id="truck63" type="truck_truck" depart="270.52" departLane="best" departSpeed="max" from="-159534243" to="-371925354"/>
    <trip id="truck64" type="truck_truck" depart="274.81" departLane="best" departSpeed="max" from="-83674635" to="-22492931#4"/>
    <trip id="truck65" type="truck_truck" depart="279.11" departLane="best" from="28037991#7" to="342586722#0"/>
    <trip id="truck66" type="truck_truck" depart="283.40" departLane="best" departSpeed="max" from="-104493120" to="23749079#0"/>
    <trip id="truck67" type="truck_truck" depart="287.69" departLane="best" from="717380720#6" to="-105196553#0"/>
    <trip id="truck68" type="truck_truck" depart="291.99" departLane="best" departSpeed="max" from="-28038007#1" to="28020753#2"/>
    <trip id="truck69" type="truck_truck" depart="296.28" departLane="best" departSpeed="max" from="-28027975" to="-23031244#3"/>
    <trip id="truck70" type="truck_truck" depart="300.57" departLane="best" from="88439575#1" to="174897340"/>
    <trip id="truck72" type="truck_truck" depart="309.16" departLane="best" departSpeed="max" from="-105467442" to="102081695#1"/>
    <trip id="truck73" type="truck_truck" depart="313.46" departLane="best" departSpeed="max" from="100132095#0" to="-1033371821"/>
    <trip id="truck74" type="truck_truck" depart="317.75" departLane="best" from="-99751844#0" to="-83701769"/>
    <trip id="truck75" type="truck_truck" depart="322.04" departLane="best" from="717380721#3" to="-493337033"/>
    <trip id="truck76" type="truck_truck" depart="326.34" departLane="best" departSpeed="max" from="-28027020#0" to="102145995"/>
    <trip id="truck77" type="truck_truck" depart="330.63" departLane="best" from="100132094" to="620127938#2"/>
    <trip id="truck78" type="truck_truck" depart="334.93" departLane="best" from="292643664#11" to="83701765#2"/>
    <trip id="truck79" type="truck_truck" depart="339.22" departLane="best" from="102077270#4" to="717380718#2"/>
    <trip id="truck80" type="truck_truck" depart="343.51" departLane="best" from="157989175#2" to="104493121#3"/>
    <trip id="truck81" type="truck_truck" depart="347.81" departLane="best" departSpeed="max" from="E9" to="620120797"/>
    <trip id="truck82" type="truck_truck" depart="352.10" departLane="best" from="99939355#2" to="83701765#4"/>
    <trip id="truck83" type="truck_truck" depart="356.40" departLane="best" departSpeed="max" from="104493121#0" to="-292643664#10.7"/>
    <trip id="truck84" type="truck_truck" depart="360.69" departLane="best" departSpeed="max" from="-88439558#5" to="E23"/>
    <trip id="truck85" type="truck_truck" depart="364.98" departLane="best" from="391891766#4" to="44419760#6"/>
    <trip id="truck86" type="truck_truck" depart="369.28" departLane="best" from="-99885096#0" to="-E42"/>
    <trip id="truck87" type="truck_truck" depart="373.57" departLane="best" departSpeed="max" from="159663520#0" to="28027975"/>
    <trip id="truck88" type="truck_truck" depart="377.87" departLane="best" from="23748652#1" to="-717380723#5"/>
    <trip id="truck89" type="truck_truck" depart="382.16" departLane="best" from="99939355#2" to="206157097"/>
    <trip id="truck90" type="truck_truck" depart="386.45" departLane="best" from="-103670697#4" to="220022429#1"/>
    <trip id="truck91" type="truck_truck" depart="390.75" departLane="best" from="104493152#3" to="689277283"/>
    <trip id="truck92" type="truck_truck" depart="395.04" departLane="best" from="104493131#2" to="-28027980"/>
    <trip id="truck93" type="truck_truck" depart="399.33" departLane="best" departSpeed="max" from="22650366" to="28021910#0"/>
    <trip id="truck94" type="truck_truck" depart="403.63" departLane="best" departSpeed="max" from="-28037996#0" to="-22492931#0"/>
    <trip id="truck95" type="truck_truck" depart="407.92" departLane="best" departSpeed="max" from="22568418" to="228897343"/>
    <trip id="truck96" type="truck_truck" depart="412.22" departLane="best" from="100101558#4" to="207070219"/>
    <trip id="truck97" type="truck_truck" depart="416.51" departLane="best" departSpeed="max" from="109868571#0" to="-88439554"/>
    <trip id="truck98" type="truck_truck" depart="420.80" departLane="best" departSpeed="max" from="-28038007#1" to="100100940"/>
    <trip id="truck99" type="truck_truck" depart="425.10" departLane="best" departSpeed="max" from="-104493120" to="-102165688#0"/>
    <trip id="truck100" type="truck_truck" depart="429.39" departLane="best" departSpeed="max" from="E9" to="-E43"/>
    <trip id="truck101" type="truck_truck" depart="433.69" departLane="best" departSpeed="max" from="-104493120" to="-292643664#0"/>
    <trip id="truck102" type="truck_truck" depart="437.98" departLane="best" from="-391891766#4" to="881567591#2"/>
    <trip id="truck103" type="truck_truck" depart="442.27" departLane="best" from="-83674622#1" to="-717380723#8"/>
    <trip id="truck104" type="truck_truck" depart="446.57" departLane="best" from="-83701765#1" to="28021111#2"/>
    <trip id="truck107" type="truck_truck" depart="459.45" departLane="best" from="24520408#1" to="-100132095#2"/>
    <trip id="truck108" type="truck_truck" depart="463.74" departLane="best" departSpeed="max" from="570426101#0" to="807805157#0"/>
    <trip id="truck109" type="truck_truck" depart="468.04" departLane="best" from="254360505#3" to="88439558#5"/>
    <trip id="truck110" type="truck_truck" depart="472.33" departLane="best" from="-120588586#1" to="159229373#1"/>
    <trip id="truck111" type="truck_truck" depart="476.63" departLane="best" departSpeed="max" from="-44419760#6" to="22650417#0"/>
    <trip id="truck112" type="truck_truck" depart="480.92" departLane="best" from="23749079#1.237" to="-561322877#1"/>
    <trip id="truck113" type="truck_truck" depart="485.21" departLane="best" from="-104493121#3" to="83674652#1"/>
    <trip id="truck114" type="truck_truck" depart="489.51" departLane="best" from="689277286#1" to="-157986565#2"/>
    <trip id="truck115" type="truck_truck" depart="493.80" departLane="best" departSpeed="max" from="100132095#0" to="-620127935#1"/>
    <trip id="truck116" type="truck_truck" depart="498.10" departLane="best" from="100101558#2" to="391891766#0"/>
    <trip id="truck117" type="truck_truck" depart="502.39" departLane="best" from="23749256#1" to="-559475282#3"/>
    <trip id="truck118" type="truck_truck" depart="506.68" departLane="best" departSpeed="max" from="28531025#0" to="157989543#0"/>
    <trip id="truck119" type="truck_truck" depart="510.98" departLane="best" from="104493121#4" to="807804127"/>
    <trip id="truck120" type="truck_truck" depart="515.27" departLane="best" from="620127938#5" to="207070219"/>
    <trip id="truck121" type="truck_truck" depart="519.56" departLane="best" departSpeed="max" from="-228897343" to="228894136#0"/>
    <trip id="truck122" type="truck_truck" depart="523.86" departLane="best" departSpeed="max" from="620127931#1" to="83674647#0"/>
    <trip id="truck123" type="truck_truck" depart="528.15" departLane="best" departSpeed="max" from="51167745#0" to="717380718#1"/>
    <trip id="truck124" type="truck_truck" depart="532.45" departLane="best" from="-292643664#10.7" to="-174897333#0"/>
    <trip id="truck125" type="truck_truck" depart="536.74" departLane="best" from="-44419760#0" to="807804127"/>
    <trip id="truck126" type="truck_truck" depart="541.03" departLane="best" from="-23031244#3" to="881567588"/>
    <trip id="truck127" type="truck_truck" depart="545.33" departLane="best" from="717380722#3" to="99885096#1"/>
    <trip id="truck128" type="truck_truck" depart="549.62" departLane="best" from="559475282#4" to="760744245"/>
    <trip id="truck129" type="truck_truck" depart="553.92" departLane="best" from="-102077254#1" to="28037992#5"/>
    <trip id="truck130" type="truck_truck" depart="558.21" departLane="best" from="717380723#8" to="881567590#0"/>
    <trip id="truck131" type="truck_truck" depart="562.50" departLane="best" from="51167746#1" to="-717380719#3"/>
    <trip id="truck132" type="truck_truck" depart="566.80" departLane="best" from="559475282#4" to="-570426101#0"/>
    <trip id="truck133" type="truck_truck" depart="571.09" departLane="best" from="44420681#0" to="-174897333#6"/>
    <trip id="truck134" type="truck_truck" depart="575.39" departLane="best" departSpeed="max" from="760744243" to="717380717#1"/>
    <trip id="truck135" type="truck_truck" depart="579.68" departLane="best" from="102146447#3" to="-83674627"/>
    <trip id="truck136" type="truck_truck" depart="583.97" departLane="best" departSpeed="max" from="51167745#0" to="391891766#1"/>
    <trip id="truck137" type="truck_truck" depart="588.27" departLane="best" departSpeed="max" from="-100380482#1.150" to="-28037991#3"/>
    <trip id="truck138" type="truck_truck" depart="592.56" departLane="best" from="23903297#0" to="100101559"/>
    <trip id="truck139" type="truck_truck" depart="596.86" departLane="best" departSpeed="max" from="E30" to="120588586#5"/>
    <trip id="truck140" type="truck_truck" depart="601.15" departLane="best" from="907839356" to="-206157073#4"/>
    <trip id="truck142" type="truck_truck" depart="609.74" departLane="best" from="-99885096#0" to="-570426101#0"/>
    <trip id="truck143" type="truck_truck" depart="614.03" departLane="best" from="28037992#4" to="-83674650"/>
    <trip id="truck144" type="truck_truck" depart="618.33" departLane="best" from="22650414#3" to="-105321647#0"/>
    <trip id="truck145" type="truck_truck" depart="622.62" departLane="best" from="-88439566" to="190876198"/>
    <trip id="truck147" type="truck_truck" depart="631.21" departLane="best" departSpeed="max" from="-100100940" to="83701765#4"/>
    <trip id="truck148" type="truck_truck" depart="635.50" departLane="best" departSpeed="max" from="120789326#1" to="28027975"/>
    <trip id="truck149" type="truck_truck" depart="639.79" departLane="best" departSpeed="max" from="-83675532" to="-105196553#0"/>
    <trip id="truck150" type="truck_truck" depart="644.09" departLane="best" from="-620127938#5" to="-620127949#1"/>
    <trip id="truck151" type="truck_truck" depart="648.38" departLane="best" from="-620127932#0" to="1002022807"/>
    <trip id="truck152" type="truck_truck" depart="652.68" departLane="best" from="-99751844#0" to="-717380723#3"/>
    <trip id="truck153" type="truck_truck" depart="656.97" departLane="best" from="174897333#1" to="100965609#1"/>
    <trip id="truck154" type="truck_truck" depart="661.26" departLane="best" from="561322877#2" to="157989175#1"/>
    <trip id="truck155" type="truck_truck" depart="665.56" departLane="best" from="100376010" to="206157097"/>
    <trip id="truck156" type="truck_truck" depart="669.85" departLane="best" from="102077270#2" to="-292643664#10.7"/>
    <trip id="truck157" type="truck_truck" depart="674.15" departLane="best" departSpeed="max" from="1033371820" to="83674647#2"/>
    <trip id="truck159" type="truck_truck" depart="682.73" departLane="best" from="23749079#0" to="-83675541"/>
    <trip id="truck160" type="truck_truck" depart="687.03" departLane="best" from="570426101#2" to="28866079#0"/>
    <trip id="truck161" type="truck_truck" depart="691.32" departLane="best" from="28000507#1" to="-371925354"/>
    <trip id="truck162" type="truck_truck" depart="695.62" departLane="best" departSpeed="max" from="-28027185" to="-102081695#0"/>
    <trip id="truck163" type="truck_truck" depart="699.91" departLane="best" departSpeed="max" from="-28038145#2" to="104493115#3"/>
    <trip id="truck164" type="truck_truck" depart="704.20" departLane="best" from="717380717#1" to="-105196553#2"/>
    <trip id="truck165" type="truck_truck" depart="708.50" departLane="best" departSpeed="max" from="-E36" to="23748877#3"/>
    <trip id="truck166" type="truck_truck" depart="712.79" departLane="best" from="24526883#0" to="-100132095#0"/>
    <trip id="truck167" type="truck_truck" depart="717.09" departLane="best" from="292643665#0" to="371925364"/>
    <trip id="truck168" type="truck_truck" depart="721.38" departLane="best" from="1136268465" to="102077265#1"/>
    <trip id="truck169" type="truck_truck" depart="725.67" departLane="best" from="-28021111#5" to="907839368#3"/>
    <trip id="truck170" type="truck_truck" depart="729.97" departLane="best" from="102145994#2" to="447053041#4"/>
    <trip id="truck172" type="truck_truck" depart="738.55" departLane="best" departSpeed="max" from="22650366" to="886211692"/>
    <trip id="truck173" type="truck_truck" depart="742.85" departLane="best" departSpeed="max" from="83674650" to="22674680#5"/>
    <trip id="truck174" type="truck_truck" depart="747.14" departLane="best" departSpeed="max" from="28027980" to="104493159"/>
    <trip id="truck175" type="truck_truck" depart="751.44" departLane="best" from="620127932#0" to="157989175#1"/>
    <trip id="truck176" type="truck_truck" depart="755.73" departLane="best" departSpeed="max" from="1033371820" to="-51167746#1"/>
    <trip id="truck177" type="truck_truck" depart="760.02" departLane="best" departSpeed="max" from="371925354" to="109868570#0"/>
    <trip id="truck178" type="truck_truck" depart="764.32" departLane="best" departSpeed="max" from="23748652#0" to="-620120792"/>
    <trip id="truck179" type="truck_truck" depart="768.61" departLane="best" departSpeed="max" from="-104493124" to="-620127952#1"/>
    <trip id="truck180" type="truck_truck" depart="772.91" departLane="best" from="-44419760#5" to="-83674767#2"/>
    <trip id="truck181" type="truck_truck" depart="777.20" departLane="best" from="136182032#1" to="-23748652#1"/>
    <trip id="truck182" type="truck_truck" depart="781.49" departLane="best" from="28027468#3" to="-105196530#0"/>
    <trip id="truck183" type="truck_truck" depart="785.79" departLane="best" from="99885096#6" to="157986560#2"/>
    <trip id="truck184" type="truck_truck" depart="790.08" departLane="best" from="E42" to="-28531025#0"/>
    <trip id="truck185" type="truck_truck" depart="794.38" departLane="best" from="100132093#0" to="83674652#1"/>
    <trip id="truck186" type="truck_truck" depart="798.67" departLane="best" from="717380719#6" to="-174897333#5"/>
    <trip id="truck187" type="truck_truck" depart="802.96" departLane="best" departSpeed="max" from="-88439558#5" to="-100132095#0"/>
    <trip id="truck188" type="truck_truck" depart="807.26" departLane="best" departSpeed="max" from="-83674652#1" to="-292643664#4"/>
    <trip id="truck189" type="truck_truck" depart="811.55" departLane="best" from="717380719#0" to="-907839357#0"/>
    <trip id="truck190" type="truck_truck" depart="815.85" departLane="best" from="100101558#4" to="28038145#2"/>
    <trip id="truck191" type="truck_truck" depart="820.14" departLane="best" departSpeed="max" from="157986565#2" to="22650414#2"/>
    <trip id="truck192" type="truck_truck" depart="824.43" departLane="best" from="28030459#1" to="-316443377#0"/>
    <trip id="truck194" type="truck_truck" depart="833.02" departLane="best" from="102165688#1" to="-228894136#1"/>
    <trip id="truck195" type="truck_truck" depart="837.32" departLane="best" from="-907839357#1" to="160615652#1"/>
    <trip id="truck196" type="truck_truck" depart="841.61" departLane="best" from="102077270#4" to="23965518"/>
    <trip id="truck197" type="truck_truck" depart="845.90" departLane="best" departSpeed="max" from="-206157097" to="102173037#5"/>
    <trip id="truck198" type="truck_truck" depart="850.20" departLane="best" from="-102173037#1" to="-E30"/>
    <trip id="truck199" type="truck_truck" depart="854.49" departLane="best" from="34779710#2" to="-E30"/>
    <trip id="truck200" type="truck_truck" depart="858.78" departLane="best" from="292643665#4" to="619881875"/>
    <trip id="truck201" type="truck_truck" depart="863.08" departLane="best" from="316442932" to="-120588585#0"/>
    <trip id="truck202" type="truck_truck" depart="867.37" departLane="best" departSpeed="max" from="-100376019" to="154859701"/>
    <trip id="truck203" type="truck_truck" depart="871.67" departLane="best" departSpeed="max" from="E9" to="-88439563#0"/>
    <trip id="truck204" type="truck_truck" depart="875.96" departLane="best" departSpeed="max" from="241481354#0" to="-44419470#7"/>
    <trip id="truck205" type="truck_truck" depart="880.25" departLane="best" departSpeed="max" from="241481354#0" to="-292643664#5"/>
    <trip id="truck206" type="truck_truck" depart="884.55" departLane="best" from="923157458" to="-28037997#0"/>
    <trip id="truck207" type="truck_truck" depart="888.84" departLane="best" from="-100380474#1" to="24526908#0"/>
    <trip id="truck208" type="truck_truck" depart="893.14" departLane="best" from="-160615651#5" to="28020755"/>
    <trip id="truck209" type="truck_truck" depart="897.43" departLane="best" departSpeed="max" from="172912073#0" to="-316443377#0"/>
    <trip id="truck210" type="truck_truck" depart="901.72" departLane="best" departSpeed="max" from="28027183#0" to="356792299#0"/>
    <trip id="truck211" type="truck_truck" depart="906.02" departLane="best" from="570426101#4" to="918645546"/>
    <trip id="truck212" type="truck_truck" depart="910.31" departLane="best" from="-120588586#3" to="-102145981#4"/>
    <trip id="truck214" type="truck_truck" depart="918.90" departLane="best" departSpeed="max" from="99751843" to="-100101558#2"/>
    <trip id="truck215" type="truck_truck" depart="923.19" departLane="best" from="717380717#2" to="22650378#1"/>
    <trip id="truck216" type="truck_truck" depart="927.49" departLane="best" departSpeed="max" from="-159534243" to="E12"/>
    <trip id="truck217" type="truck_truck" depart="931.78" departLane="best" from="44419843#0" to="88439558#0"/>
    <trip id="truck218" type="truck_truck" depart="936.08" departLane="best" from="1002022809" to="-99939355#1"/>
    <trip id="truck219" type="truck_truck" depart="940.37" departLane="best" departSpeed="max" from="105196530#0" to="-83701769"/>
    <trip id="truck220" type="truck_truck" depart="944.66" departLane="best" from="23749115#2" to="-570426101#5"/>
    <trip id="truck221" type="truck_truck" depart="948.96" departLane="best" from="28027468#4" to="102081722"/>
    <trip id="truck222" type="truck_truck" depart="953.25" departLane="best" departSpeed="max" from="28038025" to="923157458"/>
    <trip id="truck223" type="truck_truck" depart="957.55" departLane="best" from="-44419760#0" to="-51167746#0"/>
    <trip id="truck225" type="truck_truck" depart="966.13" departLane="best" from="620127932#1" to="-120789326#1"/>
    <trip id="truck226" type="truck_truck" depart="970.43" departLane="best" departSpeed="max" from="83674627" to="-44420691#0"/>
    <trip id="truck227" type="truck_truck" depart="974.72" departLane="best" from="102165313" to="22650446#0"/>
    <trip id="truck229" type="truck_truck" depart="983.31" departLane="best" departSpeed="max" from="-28027974#2" to="44420691#0"/>
    <trip id="truck230" type="truck_truck" depart="987.60" departLane="best" from="-83674642#0" to="760744245"/>
    <trip id="truck231" type="truck_truck" depart="991.90" departLane="best" from="-28027188#2" to="-620127932#1"/>
    <trip id="truck232" type="truck_truck" depart="996.19" departLane="best" from="-100101564" to="88439574#1"/>
    <trip id="truck233" type="truck_truck" depart="1000.48" departLane="best" from="-104493151#2" to="28027975"/>
    <trip id="truck234" type="truck_truck" depart="1004.78" departLane="best" from="104493121#3" to="318861202"/>
    <trip id="truck235" type="truck_truck" depart="1009.07" departLane="best" from="-104493131#1" to="44419872#1"/>
    <trip id="truck236" type="truck_truck" depart="1013.37" departLane="best" departSpeed="max" from="-105321639" to="342586722#2"/>
    <trip id="truck237" type="truck_truck" depart="1017.66" departLane="best" departSpeed="max" from="221257123#4" to="104493114#1"/>
    <trip id="truck238" type="truck_truck" depart="1021.95" departLane="best" from="1107701849" to="102077265#1"/>
    <trip id="truck239" type="truck_truck" depart="1026.25" departLane="best" departSpeed="max" from="290304847" to="-83675530#2"/>
    <trip id="truck240" type="truck_truck" depart="1030.54" departLane="best" from="292643664#7" to="-22492931#0"/>
    <trip id="truck241" type="truck_truck" depart="1034.84" departLane="best" from="-120588586#2" to="342586722#4"/>
    <trip id="truck242" type="truck_truck" depart="1039.13" departLane="best" from="-28026990#4" to="-292643664#9"/>
    <trip id="truck244" type="truck_truck" depart="1047.72" departLane="best" from="E22" to="109868571#1"/>
    <trip id="truck245" type="truck_truck" depart="1052.01" departLane="best" departSpeed="max" from="-28027085#1" to="391891766#1"/>
    <trip id="truck246" type="truck_truck" depart="1056.31" departLane="best" from="28026988" to="102077254#1"/>
    <trip id="truck247" type="truck_truck" depart="1060.60" departLane="best" departSpeed="max" from="120588585#0" to="-620120792"/>
    <trip id="truck248" type="truck_truck" depart="1064.89" departLane="best" departSpeed="max" from="E2" to="159229373#1"/>
    <trip id="truck249" type="truck_truck" depart="1069.19" departLane="best" from="28027090#1" to="-228894135#0"/>
    <trip id="truck250" type="truck_truck" depart="1073.48" departLane="best" from="717380723#5" to="104493124"/>
    <trip id="truck251" type="truck_truck" depart="1077.77" departLane="best" departSpeed="max" from="760744243" to="180389210"/>
    <trip id="truck252" type="truck_truck" depart="1082.07" departLane="best" from="-102173037#3" to="102145981#0"/>
    <trip id="truck253" type="truck_truck" depart="1086.36" departLane="best" from="-28026990#2" to="-104493121#4"/>
    <trip id="truck254" type="truck_truck" depart="1090.66" departLane="best" departSpeed="max" from="907839367" to="104493118#0"/>
    <trip id="truck255" type="truck_truck" depart="1094.95" departLane="best" from="-620120791" to="100101562"/>
    <trip id="truck256" type="truck_truck" depart="1099.24" departLane="best" from="-104493121#2" to="-23748877#2"/>
    <trip id="truck258" type="truck_truck" depart="1107.83" departLane="best" departSpeed="max" from="E45" to="-221257123#4"/>
    <trip id="truck259" type="truck_truck" depart="1112.13" departLane="best" departSpeed="max" from="371925354" to="22650417#3"/>
    <trip id="truck260" type="truck_truck" depart="1116.42" departLane="best" departSpeed="max" from="109868571#0" to="102146447#1"/>
    <trip id="truck261" type="truck_truck" depart="1120.71" departLane="best" from="102077270#3" to="717380718#0"/>
    <trip id="truck262" type="truck_truck" depart="1125.01" departLane="best" from="E39" to="-83674627"/>
    <trip id="truck263" type="truck_truck" depart="1129.30" departLane="best" from="23031244#1" to="22650422#4"/>