<routes xmlns:xsi="http://www.w3.org/2001/XMLSchema-instance" xsi:noNamespaceSchemaLocation="http://sumo.dlr.de/xsd/routes_file.xsd">

<vType id="in_t_pg_cfm_k_jm_m_lcm_e_kr"
       vClass="passenger"
       accel="2.6"
       decel="4.5"
       emergencyDecel="9.0"
       length="5"
       maxSpeed="55.55"
       minGap="2.5"
       sigma="0.5"
       speedFactor="normc(1,0.1,0.2,2)"
       carFollowModel="Krauss"
       impatience="0.25"
       jmCrossingGap="3"
       jmIgnoreKeepClearTime="300"
       laneChangeModel="LC2013"
       lcStrategic="0.0"
       lcCooperative="0.0"
       lcSpeedGain="0.0"
       lcKeepRight="1.0"
       lcOvertakeRight="0.0"
       lcOpposite="0.25"/>

<vType id="in_t_pg_cfm_k_jm_m_lcm_e_m"
       vClass="passenger"
       accel="2.6"
       decel="4.5"
       emergencyDecel="9.0"
       length="5"
       maxSpeed="55.55"
       minGap="2.5"
       sigma="0.5"
       speedFactor="normc(1,0.1,0.2,2)"
       carFollowModel="Krauss"
       impatience="0.25"
       jmCrossingGap="3"
       jmIgnoreKeepClearTime="300"
       laneChangeModel="LC2013"
       lcStrategic="0.5"
       lcCooperative="0.0"
       lcSpeedGain="0.5"
       lcKeepRight="0.25"
       lcOvertakeRight="0.0"
       lcOpposite="0.25"/>

<vType id="in_t_pg_cfm_k_jm_a_lcm_e_kr"
       vClass="passenger"
       accel="2.6"
       decel="4.5"
       emergencyDecel="9.0"
       length="5"
       maxSpeed="55.55"
       minGap="2.5"
       sigma="0.5"
       speedFactor="normc(1,0.1,0.2,2)"
       carFollowModel="Krauss"
       impatience="1.0"
       jmCrossingGap="1"
       jmIgnoreKeepClearTime="300"
       laneChangeModel="LC2013"
       lcStrategic="0.0"
       lcCooperative="0.0"
       lcSpeedGain="0.0"
       lcKeepRight="1.0"
       lcOvertakeRight="0.0"
       lcOpposite="0.25"/>

<vType id="in_t_pg_cfm_k_jm_a_lcm_e_a"
       vClass="passenger"
       accel="2.6"
       decel="4.5"
       emergencyDecel="9.0"
       length="5"
       maxSpeed="55.55"
       minGap="2.5"
       sigma="0.5"
       speedFactor="normc(1,0.1,0.2,2)"
       carFollowModel="Krauss"
       impatience="1.0"
       jmCrossingGap="1"
       jmIgnoreKeepClearTime="300"
       laneChangeModel="LC2013"
       lcStrategic="0.75"
       lcCooperative="0.0"
       lcSpeedGain="0.75"
       lcKeepRight="0.0"
       lcOvertakeRight="0.0"
       lcOpposite="0.25"/>

   

<flow begin="0.00" color="white" departLane="random" departSpeed="max" end="3600.00" id="f_r2ps_to_ach1_1" period="exp(0.034)" type="in_t_pg_cfm_k_jm_a_lcm_e_kr"> 
    <route edges="814259719 689277284#0 689277288#0 689277288#1 689277288#2 881567591#0 881567591#1 881567591#2 542209564#3 542209564#4 542209564#5 542209564#6 542209564#7 760744245" /> 
  </flow>
  
  <flow begin="0.00" color="white" departLane="random" departSpeed="max" end="3600.00" id="f_r2ps_to_ach1_2" period="exp(0.001)" type="in_t_pg_cfm_k_jm_a_lcm_e_kr"> 
    <route edges="814259719 689277284#0 689277284#1 689277284#2 689277281#7 689277286#0 689277286#1 881567591#0 881567591#1 881567591#2 542209564#3 542209564#4 542209564#5 542209564#6 542209564#7 760744245" /> 
  </flow>

  <flow begin="0" color="white" departLane="random" departSpeed="max" end="3600.00" id="f_r2ps_to_mgp_1" period="exp(0.034)" type="in_t_pg_cfm_k_jm_a_lcm_e_kr"> 
    <route edges="814259719 689277284#0 689277288#0 689277288#1 689277288#2 881567591#0 881567591#1 881567591#2 542209564#3 542209564#4 -221257123#6 -221257123#4" /> 
  </flow>
  
  <flow begin="0" color="white" departLane="random" departSpeed="max" end="3600.00" id="f_r2ps_to_mgp_2" period="exp(0.001)" type="in_t_pg_cfm_k_jm_a_lcm_e_kr"> 
    <route edges="814259719 689277284#0 689277284#1 689277284#2 689277281#7 689277286#0 689277286#1 881567591#0 881567591#1 881567591#2 542209564#3 542209564#4 -221257123#6 -221257123#4" /> 
  </flow>
  
  <flow begin="0.00" color="white" departLane="random" departSpeed="max" end="3600.00" id="f_r2ps_to_bk" period="exp(0.002)" type="in_t_pg_cfm_k_jm_a_lcm_e_kr"> 
    <route edges="814259719 689277284#0 689277288#0 875403160#0 E27" /> 
  </flow> 
  
  <flow begin="0.00" color="white" departLane="random" departSpeed="max" end="3600.00" id="f_r2ps_to_ikia_1" period="exp(0.034)" type="in_t_pg_cfm_k_jm_a_lcm_e_kr"> 
    <route edges="814259719 689277284#0 689277284#1 689277284#2 689277281#7 689277286#0 689277286#1 881567591#0 881567591#1 881567591#2 542209564#3 542209564#4 542209564#5 542209565 136182032#1 22650420#3 22650420#4 22650420#5 22650420#6 22650420#7 23749340 254360506#1 254360506#2 23749315#6 23749417 23903302#0 23903302#1 23903302#3 1132143382#1 170556796#6 170556796#1 -E9" /> 
  </flow>
  
  <flow begin="0.00" color="white" departLane="random" departSpeed="max" end="3600.00" id="f_r2ps_to_ikia_2" period="exp(0.001)" type="in_t_pg_cfm_k_jm_a_lcm_e_kr"> 
    <route edges="814259719 689277284#0 689277288#0 689277288#1 689277288#2 881567591#0 881567591#1 881567591#2 542209564#3 542209564#4 542209564#5 542209565 136182032#1 22650420#3 22650420#4 22650420#5 22650420#6 22650420#7 23749340 254360506#1 254360506#2 23749315#6 23749417 23903302#0 23903302#1 23903302#3 1132143382#1 170556796#6 170556796#1 -E9" /> 
  </flow>
  

  <flow begin="0.00" color="white" departLane="random" departSpeed="max" end="3600.00" id="f_r2ps_to_but_1" period="exp(0.024)" type="in_t_pg_cfm_k_jm_a_lcm_e_kr"> 
    <route edges="814259719 689277284#0 689277288#0 689277288#1 689277288#2 881567591#0 881567591#1 881567591#2 542209564#3 542209564#4 542209564#5 542209565 136182032#1 22650420#3 22650420#4 22650420#5 22650432 254360502#1 254360502#2 254360502#3 22650412#3 23749256#0 23749256#1 23749256#2 620127944" /> 
  </flow>
  
  <flow begin="0.00" color="white" departLane="random" departSpeed="max" end="3600.00" id="f_r2ps_to_but_2" period="exp(0.001)" type="in_t_pg_cfm_k_jm_a_lcm_e_kr"> 
    <route edges="814259719 689277284#0 689277284#1 689277284#2 689277281#7 689277286#0 689277286#1 881567591#0 881567591#1 881567591#2 542209564#3 542209564#4 542209564#5 542209565 136182032#1 22650420#3 22650420#4 22650420#5 22650432 254360502#1 254360502#2 254360502#3 22650412#3 23749256#0 23749256#1 23749256#2 620127944" /> 
  </flow>
  
  <flow begin="0.00" color="white" departLane="random" departSpeed="max" end="3600.00" id="f_r2ps_to_alpha_1" period="exp(0.024)" type="in_t_pg_cfm_k_jm_a_lcm_e_kr"> 
    <route edges="814259719 689277284#0 689277288#0 689277288#1 689277288#2 881567591#0 881567591#1 881567591#2 542209564#3 542209564#4 542209564#5 542209565 136182032#1 22650420#3 22650420#4 22650420#5 22650432 254360502#1 254360502#2 254360502#3 22650412#3 22650412#4 22650412#5 22650417#0 22650417#1 22650417#2 22650417#3 22650417#4 23749113#5 23749113#6 23749113#1 160615652#0 160615652#1" /> 
  </flow>
  
  <flow begin="0.00" color="white" departLane="random" departSpeed="max" end="3600.00" id="f_r2ps_to_alpha_2" period="exp(0.001)" type="in_t_pg_cfm_k_jm_a_lcm_e_kr"> 
    <route edges="814259719 689277284#0 689277284#1 689277284#2 689277281#7 689277286#0 689277286#1 881567591#0 881567591#1 881567591#2 542209564#3 542209564#4 542209564#5 542209565 136182032#1 22650420#3 22650420#4 22650420#5 22650432 254360502#1 254360502#2 254360502#3 22650412#3 22650412#4 22650412#5 22650417#0 22650417#1 22650417#2 22650417#3 22650417#4 23749113#5 23749113#6 23749113#1 160615652#0 160615652#1" /> 
  </flow>
  
  <flow begin="0.00" color="white" departLane="random" departSpeed="max" end="3600.00" id="f_r2ps_to_onation_1" period="exp(0.024)" type="in_t_pg_cfm_k_jm_a_lcm_e_kr"> 
    <route edges="814259719 689277284#0 689277288#0 689277288#1 689277288#2 881567591#0 881567591#1 881567591#2 542209564#3 542209564#4 542209564#5 542209565 136182032#1 22650420#3 22650420#4 22650420#5 22650432 254360502#1 254360502#2 254360502#3 22650412#3 22650412#4 22650412#5 22650417#0 22650417#1 22650417#2 22650417#3 22650417#4 23749113#5 23749079#0 23749079#1 23749079#1.237 22650375#3 22650375#4 22650378#0 22650378#1 22650378#2 22650378#3 356792291#1 356792291#2 356792291#3 356792291#4 510762961 100376010 620127931#0 620127931#1" /> 
  </flow>
  
  <flow begin="0.00" color="white" departLane="random" departSpeed="max" end="3600.00" id="f_r2ps_to_onation_2" period="exp(0.001)" type="in_t_pg_cfm_k_jm_a_lcm_e_kr"> 
    <route edges="814259719 689277284#0 689277284#1 689277284#2 689277281#7 689277286#0 689277286#1 881567591#0 881567591#1 881567591#2 542209564#3 542209564#4 542209564#5 542209565 136182032#1 22650420#3 22650420#4 22650420#5 22650432 254360502#1 254360502#2 254360502#3 22650412#3 22650412#4 22650412#5 22650417#0 22650417#1 22650417#2 22650417#3 22650417#4 23749113#5 23749079#0 23749079#1 23749079#1.237 22650375#3 22650375#4 22650378#0 22650378#1 22650378#2 22650378#3 356792291#1 356792291#2 356792291#3 356792291#4 510762961 100376010 620127931#0 620127931#1" /> 
  </flow>

  <flow begin="0.00" color="blue" departLane="random" departSpeed="avg" end="3600.00" id="f_r2pn_to_ach1" period="exp(0.03)" type="in_t_pg_cfm_k_jm_a_lcm_e_a">
    <route edges="22568418 22468300#1 22468300#2 22468300#3 22468300#4 22468241 881567588 689277282 881567590#0 881567590#1 689277281#1 689277281#2 689277281#3 689277281#4 689277281#5 689277281#6 689277281#7 689277286#0 689277286#1 881567591#0 881567591#1 881567591#2 542209564#3 542209564#4 542209564#5 542209564#6 542209564#7 760744245" /> 
  </flow>
  
  <flow begin="0.00" color="blue" departLane="random" departSpeed="avg" end="3600.00" id="f_r2pn_to_mgp" period="exp(0.03)" type="in_t_pg_cfm_k_jm_a_lcm_e_a"> 
    <route edges="22568418 22468300#1 22468300#2 22468300#3 22468300#4 22468241 881567588 689277282 881567590#0 881567590#1 689277281#1 689277281#2 689277281#3 689277281#4 689277281#5 689277281#6 689277281#7 689277286#0 689277286#1 881567591#0 881567591#1 881567591#2 542209564#3 542209564#4 -221257123#6 -221257123#4" /> 
  </flow>
  
  <flow begin="0.00" color="blue" departLane="random" departSpeed="avg" end="3600.00" id="f_r2pn_to_ikia" period="exp(0.03)" type="in_t_pg_cfm_k_jm_a_lcm_e_a"> 
    <route edges="22568418 22468300#1 22468300#2 22468300#3 22468300#4 22468300#5 22468300#6 22468300#7 102164651 -102164655 102165315 102165317#2 102165317#3 E13 102164657 619881884 102165688#0 524387944 28002710" /> 
  </flow>
  
  <flow begin="0.00" color="blue" departLane="random" departSpeed="avg" end="3600.00" id="f_r2pn_to_but" period="exp(0.02)" type="in_t_pg_cfm_k_jm_a_lcm_e_a"> 
    <route edges="22568418 22468300#1 22468300#2 22468300#3 22468300#4 22468300#5 22468300#6 22468300#7 102164651 -102164655 102165315 102165317#2 102165317#3 E13 102164657 619881884 102165688#0 102165688#1 1136268465 190876198 28000507#1 22650412#1 22650412#2 22650412#3 23749256#0 23749256#1 23749256#2 620127944" /> 
  </flow>
  
  <flow begin="0.00" color="blue" departLane="random" departSpeed="avg" end="3600.00" id="f_r2pn_to_alpha" period="exp(0.02)" type="in_t_pg_cfm_k_jm_a_lcm_e_a">
    <route edges="22568418 22468300#1 22468300#2 22468300#3 22468300#4 22468300#5 22468300#6 22468300#7 102164651 -102164655 102165315 102165317#2 102165317#3 E13 102164657 619881884 102165688#0 102165688#1 1136268465 190876198 28000507#1 22650412#1 22650412#2 22650412#3 22650412#4 22650412#5 22650417#0 22650417#1 22650417#2 22650417#3 22650417#4 23749113#5 23749113#6 23749113#1 160615652#0 160615652#1" /> 
  </flow>
  
  <flow begin="0.00" color="blue" departLane="random" departSpeed="avg" end="3600.00" id="f_r2pn_to_onation" period="exp(0.02)" type="in_t_pg_cfm_k_jm_a_lcm_e_a"> 
    <route edges="22568418 22468300#1 22468300#2 22468300#3 22468300#4 22468300#5 22468300#6 22468300#7 102164651 -102164655 102165315 102165317#2 102165317#3 E13 102164657 619881884 102165688#0 102165688#1 1136268465 190876198 28000507#1 22650412#1 22650412#2 22650412#3 22650412#4 22650412#5 22650417#0 22650417#1 22650417#2 22650417#3 22650417#4 23749113#5 23749079#0 23749079#1 23749079#1.237 22650375#3 22650375#4 22650378#0 22650378#1 22650378#2 22650378#3 356792291#1 356792291#2 356792291#3 356792291#4 510762961 100376010 620127931#0 620127931#1" /> 
  </flow>
 
  
  <flow begin="0.00" color="orange" departLane="random" departSpeed="avg" end="3600.00" id="f_plsr_to_ach1" period="exp(0.025)" type="in_t_pg_cfm_k_jm_a_lcm_e_a"> 
    <route edges="254622403#0 570426100#3 22674672 591402342#0 591402342#1 689277290#0 689277290#1 689277281#5 689277281#6 689277281#7 689277286#0 689277286#1 881567591#0 881567591#1 881567591#2 542209564#3 542209564#4 542209564#5 542209564#6 542209564#7 760744245" /> 
  </flow>

  <flow begin="0.00" color="orange" departLane="random" departSpeed="avg" end="3600.00" id="f_plsr_to_mgp" period="exp(0.025)" type="in_t_pg_cfm_k_jm_a_lcm_e_a"> 
    <route edges="254622403#0 570426100#3 22674672 591402342#0 591402342#1 689277290#0 689277290#1 689277281#5 689277281#6 689277281#7 689277286#0 689277286#1 881567591#0 881567591#1 881567591#2 542209564#3 542209564#4 -221257123#6 -221257123#4" /> 
  </flow>

  <flow begin="0.00" color="orange" departLane="random" departSpeed="avg" end="3600.00" id="f_plsr_to_ikia" period="exp(0.025)" type="in_t_pg_cfm_k_jm_a_lcm_e_a"> 
    <route edges="254622403#0 570426100#3 22674672 591402342#0 591402342#1 689277290#0 689277290#1 689277281#5 689277281#6 689277281#7 689277286#0 689277286#1 881567591#0 881567591#1 881567591#2 542209564#3 542209564#4 542209564#5 542209565 136182032#1 22650420#3 22650420#4 22650420#5 22650420#6 22650420#7 23749340 254360506#1 254360506#2 23749315#6 23749417 23903302#0 23903302#1 23903302#3 1132143382#1 170556796#6 170556796#1 -E9" /> 
  </flow>

  <flow begin="0.00" color="orange" departLane="random" departSpeed="avg" end="3600.00" id="f_plsr_to_but" period="exp(0.015)" type="in_t_pg_cfm_k_jm_a_lcm_e_a"> 
    <route edges="254622403#0 570426100#3 22674672 591402342#0 591402342#1 689277290#0 689277290#1 689277281#5 689277281#6 689277281#7 689277286#0 689277286#1 881567591#0 881567591#1 881567591#2 542209564#3 542209564#4 542209564#5 542209565 136182032#1 22650420#3 22650420#4 22650420#5 22650432 254360502#1 254360502#2 254360502#3 22650412#3 23749256#0 23749256#1 23749256#2 620127944" /> 
  </flow>

  <flow begin="0.00" color="orange" departLane="random" departSpeed="avg" end="3600.00" id="f_plsr_to_alpha" period="exp(0.015)" type="in_t_pg_cfm_k_jm_a_lcm_e_a"> 
    <route edges="254622403#0 570426100#3 22674672 591402342#0 591402342#1 689277290#0 689277290#1 689277281#5 689277281#6 689277281#7 689277286#0 689277286#1 881567591#0 881567591#1 881567591#2 542209564#3 542209564#4 542209564#5 542209565 136182032#1 22650420#3 22650420#4 22650420#5 22650432 254360502#1 254360502#2 254360502#3 22650412#3 22650412#4 22650412#5 22650417#0 22650417#1 22650417#2 22650417#3 22650417#4 23749113#5 23749113#6 23749113#1 160615652#0 160615652#1" /> 
  </flow>

  <flow begin="0.00" color="orange" departLane="random" departSpeed="avg" end="3600.00" id="f_plsr_to_onation" period="exp(0.015)" type="in_t_pg_cfm_k_jm_a_lcm_e_a"> 
    <route edges="254622403#0 570426100#3 22674672 591402342#0 591402342#1 689277290#0 689277290#1 689277281#5 689277281#6 689277281#7 689277286#0 689277286#1 881567591#0 881567591#1 881567591#2 542209564#3 542209564#4 542209564#5 542209565 136182032#1 22650420#3 22650420#4 22650420#5 22650432 254360502#1 254360502#2 254360502#3 22650412#3 22650412#4 22650412#5 22650417#0 22650417#1 22650417#2 22650417#3 22650417#4 23749113#5 23749079#0 23749079#1 23749079#1.237 22650375#3 22650375#4 22650378#0 22650378#1 22650378#2 22650378#3 356792291#1 356792291#2 356792291#3 356792291#4 510762961 100376010 620127931#0 620127931#1" /> 
  </flow>

  <flow begin="0.00" color="cyan" departLane="random" departSpeed="avg" end="3600.00" id="f_grgn_to_ach1" period="exp(0.02)" type="in_t_pg_cfm_k_jm_a_lcm_e_a">
    <route edges="23748652#0 23748652#1 34778584#0 34778584#1 689277281#3 689277281#4 689277281#5 689277281#6 689277281#7 689277286#0 689277286#1 881567591#0 881567591#1 881567591#2 542209564#3 542209564#4 542209564#5 542209564#6 542209564#7 760744245" />
  </flow>

  <flow begin="0.00" color="cyan" departLane="random" departSpeed="avg" end="3600.00" id="f_grgn_to_mgp" period="exp(0.02)" type="in_t_pg_cfm_k_jm_a_lcm_e_a">
    <route edges="23748652#0 23748652#1 34778584#0 34778584#1 689277281#3 689277281#4 689277281#5 689277281#6 689277281#7 689277286#0 689277286#1 881567591#0 881567591#1 881567591#2 542209564#3 542209564#4 -221257123#6 -221257123#4" />
  </flow>

  <flow begin="0.00" color="cyan" departLane="random" departSpeed="avg" end="3600.00" id="f_grgn_to_ikia" period="exp(0.02)" type="in_t_pg_cfm_k_jm_a_lcm_e_a">
    <route edges="23748652#0 23748652#1 34778584#0 34778584#1 689277281#3 689277281#4 689277281#5 689277281#6 689277281#7 689277286#0 689277286#1 881567591#0 881567591#1 881567591#2 542209564#3 542209564#4 542209564#5 542209565 136182032#1 22650420#3 22650420#4 22650420#5 22650420#6 22650420#7 23749340 254360506#1 254360506#2 23749315#6 23749417 23903302#0 23903302#1 23903302#3 1132143382#1 170556796#6 170556796#1 -E9" />
  </flow>

  <flow begin="0.00" color="cyan" departLane="random" departSpeed="avg" end="3600.00" id="f_grgn_to_but" period="exp(0.01)" type="in_t_pg_cfm_k_jm_a_lcm_e_a">
    <route edges="23748652#1 34778584#0 34778584#1 689277281#3 689277281#4 689277281#5 689277281#6 689277281#7 689277286#0 689277286#1 881567591#0 881567591#1 881567591#2 542209564#3 542209564#4 542209564#5 542209565 136182032#1 22650420#3 22650420#4 22650420#5 22650432 254360502#1 254360502#2 254360502#3 22650412#3 23749256#0 23749256#1 23749256#2 620127944" />
  </flow>

  <flow begin="0.00" color="cyan" departLane="random" departSpeed="avg" end="3600.00" id="f_grgn_to_alpha" period="exp(0.01)" type="in_t_pg_cfm_k_jm_a_lcm_e_a">
    <route edges="23748652#0 23748652#1 34778584#0 34778584#1 689277281#3 689277281#4 689277281#5 689277281#6 689277281#7 689277286#0 689277286#1 881567591#0 881567591#1 881567591#2 542209564#3 542209564#4 542209564#5 542209565 136182032#1 22650420#3 22650420#4 22650420#5 22650432 254360502#1 254360502#2 254360502#3 22650412#3 22650412#4 22650412#5 22650417#0 22650417#1 22650417#2 22650417#3 22650417#4 23749113#5 23749113#6 23749113#1 160615652#0 160615652#1" />
  </flow>

  <flow begin="0.00" color="cyan" departLane="random" departSpeed="avg" end="3600.00" id="f_grgn_to_onation" period="exp(0.01)" type="in_t_pg_cfm_k_jm_a_lcm_e_a">
    <route edges="23748652#0 23748652#1 34778584#0 34778584#1 689277281#3 689277281#4 689277281#5 689277281#6 689277281#7 689277286#0 689277286#1 881567591#0 881567591#1 881567591#2 542209564#3 542209564#4 542209564#5 542209565 136182032#1 22650420#3 22650420#4 22650420#5 22650432 254360502#1 254360502#2 254360502#3 22650412#3 22650412#4 22650412#5 22650417#0 22650417#1 22650417#2 22650417#3 22650417#4 23749113#5 23749079#0 23749079#1 23749079#1.237 22650375#3 22650375#4 22650378#0 22650378#1 22650378#2 22650378#3 356792291#1 356792291#2 356792291#3 356792291#4 510762961 100376010 620127931#0 620127931#1" />
  </flow>

  <flow begin="0.00" color="green" departLane="random" departSpeed="avg" end="3600.00" id="f_vlpr_to_ach1" period="exp(0.02)" type="in_t_pg_cfm_k_jm_a_lcm_e_a"> 
    <route edges="356789687 102165316 102165313 102165317#0 102165317#1 102165317#2 102165317#3 E13 102164657 619881884 102165688#0 102165688#1 1136268465 190876198 28000507#1 22650412#1 22650422#0 22650422#1 22650422#2 22650422#3 22650422#4 22650420#7 22650420#8 22650420#1 22650446#0 22650446#1 542209564#7 760744245" /> 
  </flow>

  <flow begin="0.00" color="green" departLane="random" departSpeed="avg" end="3600.00" id="f_vlpr_to_mgp" period="exp(0.02)" type="in_t_pg_cfm_k_jm_a_lcm_e_a"> 
    <route edges="356789687 102165316 102165313 102165317#0 102165317#1 102165317#2 102165317#3 E13 102164657 619881884 102165688#0 102165688#1 1136268465 190876198 28000507#1 22650412#1 22650422#0 22650422#1 22650422#2 22650422#3 22650422#4 22650420#7 22650420#8 22650420#1 22650446#0 22650446#1 542209564#7 542209564#8 542209564#1 542209564#2 542209564#3 542209564#4 -221257123#6 -221257123#4" /> 
  </flow>

  <flow begin="0.00" color="green" departLane="random" departSpeed="avg" end="3600.00" id="f_vlpr_to_ikia" period="exp(0.02)" type="in_t_pg_cfm_k_jm_m_lcm_e_m"> 
    <route edges="356789687 102165316 102165313 102165317#0 102165317#1 102165317#2 102165317#3 E13 102164657 619881884 102165688#0 524387944 28002710" /> 
  </flow>

  <flow begin="0.00" color="green" departLane="random" departSpeed="avg" end="3600.00" id="f_vlpr_to_but" period="exp(0.01)" type="in_t_pg_cfm_k_jm_m_lcm_e_m"> 
    <route edges="356789687 102165316 102165313 102165317#0 102165317#1 102165317#2 102165317#3 E13 102164657 619881884 102165688#0 102165688#1 1136268465 190876198 28000507#1 22650412#1 22650412#2 22650412#3 23749256#0 23749256#1 23749256#2 620127944" /> 
  </flow>

  <flow begin="0.00" color="green" departLane="random" departSpeed="avg" end="3600.00" id="f_vlpr_to_alpha" period="exp(0.01)" type="in_t_pg_cfm_k_jm_m_lcm_e_m"> 
    <route edges="356789687 102165316 102165313 102165317#0 102165317#1 102165317#2 102165317#3 E13 102164657 619881884 102165688#0 102165688#1 1136268465 190876198 28000507#1 22650412#1 22650412#2 22650412#3 22650412#4 22650412#5 22650417#0 22650417#1 22650417#2 22650417#3 22650417#4 23749113#5 23749113#6 23749113#1 160615652#0 160615652#1" /> 
  </flow>

  <flow begin="0.00" color="green" departLane="random" departSpeed="avg" end="3600.00" id="f_vlpr_to_onation" period="exp(0.01)" type="in_t_pg_cfm_k_jm_m_lcm_e_m"> 
    <route edges="356789687 102165316 102165313 102165317#0 102165317#1 102165317#2 102165317#3 E13 102164657 619881884 102165688#0 102165688#1 1136268465 190876198 28000507#1 22650412#1 22650412#2 22650412#3 22650412#4 22650412#5 22650417#0 22650417#1 22650417#2 22650417#3 22650417#4 23749113#5 23749079#0 23749079#1 23749079#1.237 22650375#3 22650375#4 22650378#0 22650378#1 22650378#2 22650378#3 356792291#1 356792291#2 356792291#3 356792291#4 510762961 100376010 620127931#0 620127931#1" /> 
  </flow>

    <flow begin="0.00" color="magenta" departLane="random" departSpeed="max" end="3600.00" id="f_lcsb_to_ach1" period="exp(0.02)" type="in_t_pg_cfm_k_jm_a_lcm_e_a"> 
    <route edges="22650366 22650364#5 22650368#0 22650368#1 356792291#4 356792291#5 22650367#0 22650367#1 22650367#2 22650367#4 22650367#5 22650367#6 22650375#6 22650375#7 22650375#1 22650414#0 22650414#0.19 22650414#1 22650414#2 22650414#2.34 22650414#3 23749113#1 23749113#2 23749113#3 23749115#0 23749115#1 23749115#2 22650412#7 22650412#0 22650412#1 22650422#0 22650422#1 22650422#2 22650422#3 22650422#4 22650420#7 22650420#8 22650420#1 22650446#0 22650446#1 542209564#7 760744245" /> 
  </flow>
 
  <flow begin="0.00" color="magenta" departLane="random" departSpeed="max" end="3600.00" id="f_lcsb_to_mgp" period="exp(0.02)" type="in_t_pg_cfm_k_jm_a_lcm_e_a"> 
    <route edges="22650366 22650364#5 22650368#0 22650368#1 356792291#4 356792291#5 22650367#0 22650367#1 22650367#2 22650367#4 22650367#5 22650367#6 22650375#6 22650375#7 22650375#1 22650414#0 22650414#0.19 22650414#1 22650414#2 22650414#2.34 22650414#3 23749113#1 23749113#2 23749113#3 23749115#0 23749115#1 23749115#2 22650412#7 22650412#0 22650412#1 22650422#0 22650422#1 22650422#2 22650422#3 22650422#4 22650420#7 22650420#8 22650420#1 22650446#0 22650446#1 542209564#7 542209564#8 542209564#1 542209564#2 542209564#3 542209564#4 -221257123#6 -221257123#4" /> 
  </flow>

  <flow begin="0.00" color="magenta" departLane="random" departSpeed="max" end="3600.00" id="f_lcsb_to_ikia" period="exp(0.02)" type="in_t_pg_cfm_k_jm_a_lcm_e_a"> 
    <route edges="22650366 22650364#5 22650368#0 22650368#1 356792291#4 356792291#5 22650367#0 22650367#1 22650367#2 22650367#4 22650367#5 22650367#6 22650375#6 22650375#7 22650375#1 22650414#0 22650414#0.19 22650414#1 22650414#2 22650414#2.34 22650414#3 23749113#1 23749113#2 23749113#3 23749115#0 23749115#1 23749115#2 22650412#7 22650412#0 22650412#1 22650422#0 22650422#1 22650422#2 23903297#0 23903297#1 E36" /> 
  </flow>

  <flow begin="0.00" color="magenta" departLane="random" departSpeed="max" end="3600.00" id="f_lcsb_to_but" period="exp(0.01)" type="in_t_pg_cfm_k_jm_m_lcm_e_m"> 
    <route edges="22650366 22650364#5 22650368#0 22650368#1 356792291#4 356792291#5 22650367#0 22650367#1 22650367#2 22650367#4 22650367#5 22650367#6 22650375#6 22650375#7 22650375#1 22650414#0 22650414#0.19 22650414#1 22650414#2 22650414#2.34 22650414#3 23749113#1 23749113#2 23749113#3 23749115#0 23749115#1 23749115#2 22650412#7 22650412#0 22650412#1 22650412#2 22650412#3 23749256#0 23749256#1 23749256#2 620127944" /> 
  </flow>

  <flow begin="0.00" color="magenta" departLane="random" departSpeed="max" end="3600.00" id="f_lcsb_to_alpha" period="exp(0.01)" type="in_t_pg_cfm_k_jm_m_lcm_e_m"> 
    <route edges="22650366 22650364#5 22650368#0 22650368#1 356792291#4 356792291#5 22650367#0 22650367#1 22650367#2 22650367#4 22650367#5 22650367#6 22650375#6 22650375#7 22650375#1 22650414#0 22650414#0.19 22650414#1 22650414#2 22650414#2.34 22650414#3 23749113#1 160615652#0 160615652#1" /> 
  </flow>

  <flow begin="0.00" color="magenta" departLane="random" departSpeed="max" end="3600.00" id="f_lcsb_to_onation" period="exp(0.01)" type="in_t_pg_cfm_k_jm_m_lcm_e_m"> 
    <route edges="22650366 22650364#5 22650368#0 22650368#1 356792291#4 510762961 100376010 620127931#0 620127931#1" /> 
  </flow>
  
  <flow begin="0.00" color="red" departLane="random" departSpeed="max" end="3600.00" id="f_r2p_sn" period="exp(0.1)" type="in_t_pg_cfm_k_jm_a_lcm_e_a">
    <route edges="814259719 881567587 881567589 666132796 22468300#6 22468300#7 22468300#8 22468300#9 22568417" /> 
  </flow>
  
  <flow begin="0.00" color="red" departLane="random" departSpeed="max" end="3600.00" id="f_r2p_ns" period="exp(0.1)" type="in_t_pg_cfm_k_jm_a_lcm_e_a">
    <route edges="22568418 22468300#1 22468300#2 22468300#3 22468300#4 22468241 881567588 421500828 689277279 918645546 918645545 814259721" /> 
  </flow>




<flow begin="0.00" color="white" departLane="random" departSpeed="avg" end="3600.00" id="f_ach1_to_r2ps" period="exp(0.028)" type="in_t_pg_cfm_k_jm_a_lcm_e_a"> 
    <route edges="760744243 542209564#1 1024920554 689277287#1 1024920555#0 1024920555#1 689277281#9 689277281#10 689277281#1 689277281#2 689277281#3 689277281#4 689277281#5 966303574#0 966303574#1 966303575 1024948819 689277283 918645546 918645545 814259721" /> 
  </flow>




  <flow begin="0.00" color="white" departLane="random" departSpeed="avg" end="3600.00" id="f_mgp_to_r2ps" period="exp(0.028)" type="in_t_pg_cfm_k_jm_a_lcm_e_a"> 
    <route edges="221257123#4 221257123#6 542209564#5 542209564#6 542209564#7 542209564#8 542209564#1 1024920554 689277287#1 1024920555#0 1024920555#1 689277281#9 689277281#10 689277281#1 689277281#2 689277281#3 689277281#4 689277281#5 966303574#0 966303574#1 966303575 1024948819 689277283 918645546 918645545 814259721" /> 
  </flow>

  <flow begin="0.00" color="white" departLane="random" departSpeed="avg" end="3600.00" id="f_ikia_to_r2ps" period="exp(0.028)" type="in_t_pg_cfm_k_jm_a_lcm_e_a"> 
    <route edges="-E36 28014492#0 28014492#1 28014492#2 170556796#3 170556796#4 26104213#0 -23903302#3 -23903302#1 -23903302#0 23749390 23749315#8 23749315#9.15 164945645 -28021111#5 -28021111#5.14 -28021111#3.20 -28021111#2 -28021111#1 24526883#0 24526883#1 174897325#0 174897325#2 254362790#0 E39 1107701854#2 28020970#1 1107701847 1107701847173 881567590#0 881567590#1 689277281#1 689277281#2 689277281#3 689277281#4 689277281#5 966303574#0 966303574#1 966303575 1024948819 689277283 918645546 918645545 814259721" /> 
  </flow>

  <flow begin="0.00" color="white" departLane="random" departSpeed="avg" end="3600.00" id="f_alpha_to_r2ps" period="exp(0.027)" type="in_t_pg_cfm_k_jm_a_lcm_e_a"> 
    <route edges="27999818#0 27999818#1 23749113#3 23749115#0 23749115#1 23749115#2 22650412#7 22650412#0 22650412#1 22650422#0 22650422#1 22650422#2 22650422#3 22650422#4 22650420#7 22650420#8 22650420#1 22650446#0 22650446#1 542209564#7 542209564#8 542209564#1 1024920554 689277287#1 1024920555#0 1024920555#1 689277281#9 689277281#10 689277281#1 689277281#2 689277281#3 689277281#4 689277281#5 966303574#0 966303574#1 966303575 1024948819 689277283 918645546 918645545 814259721" /> 
  </flow>

  <flow begin="0.00" color="white" departLane="random" departSpeed="avg" end="3600.00" id="f_onation_to_r2ps" period="exp(0.024)" type="in_t_pg_cfm_k_jm_a_lcm_e_a"> 
    <route edges="-620127931#1 -620127931#0 -100376010 -510762961 356792291#5 22650367#0 22650367#1 22650367#2 22650367#4 22650367#5 22650367#6 22650375#6 22650375#7 22650375#1 22650414#0 22650414#0.19 22650414#1 22650414#2 22650414#2.34 22650414#3 23749113#1 23749113#2 23749113#3 23749115#0 23749115#1 23749115#2 22650412#7 22650412#0 22650412#1 22650422#0 22650422#1 22650422#2 22650422#3 22650422#4 22650420#7 22650420#8 22650420#1 22650446#0 22650446#1 542209564#7 542209564#8 542209564#1 1024920554 689277287#1 1024920555#0 1024920555#1 689277281#9 689277281#10 689277281#1 689277281#2 689277281#3 689277281#4 689277281#5 966303574#0 966303574#1 966303575 1024948819 689277283 918645546 918645545 814259721" /> 
  </flow>

  <flow begin="0.00" color="blue" departLane="random" departSpeed="avg" end="3600.00" id="f_ach1_to_r2pn" period="exp(0.028)" type="in_t_pg_cfm_k_jm_a_lcm_e_a"> 
    <route edges="760744243 542209564#1 1024920554 689277287#1 1024920555#0 1024920555#1 689277281#9 689277285#0 689277285#1 689277285#2 1024920556 881567589 666132796 22468300#6 22468300#7 22468300#8 22468300#9 22568417" /> 
  </flow>
  
  <flow begin="0.00" color="blue" departLane="random" departSpeed="avg" end="3600.00" id="f_mgp_to_r2pn" period="exp(0.028)" type="in_t_pg_cfm_k_jm_a_lcm_e_a"> 
    <route edges="221257123#4 221257123#6 542209564#5 542209564#6 542209564#7 542209564#8 542209564#1 1024920554 689277287#1 1024920555#0 1024920555#1 689277281#9 689277285#0 689277285#1 689277285#2 1024920556 881567589 666132796 22468300#6 22468300#7 22468300#8 22468300#9 22568417" /> 